/batch
/config,noeldb,1     ! force off writing results to database
*get,_wallstrt,active,,time,wall
! ANSYS input file written by Workbench version 2021 R2
! File used for geometry attach: C:\Users\CJ\PycharmProjects\DesignOptimization2021Fall\Project\Project 2 Ansys\Project 2_dp1_files\dp1\Geom\DM\Geom.agdb
/title,Project 2_dp1--Modal (C5)
! ****** Begin Custom Load Command Snippet ******
/COM, ACT Extensions:
/COM,     LSDYNA, 2021.1
/COM,     5f463412-bd3e-484b-87e7-cbc0a665e474, wbex
/COM,
! ****** End   Custom Load Command Snippet ******
*DIM,_wb_ProjectScratch_dir,string,248
_wb_ProjectScratch_dir(1) = 'C:\Users\CJ\PycharmProjects\DesignOptimization2021Fall\Project\Project 2 Ansys\_ProjectScratch\Scr182D\'
*DIM,_wb_SolverFiles_dir,string,248
_wb_SolverFiles_dir(1) = 'C:\Users\CJ\PycharmProjects\DesignOptimization2021Fall\Project\Project 2 Ansys\Project 2_dp1_files\dp1\SYS-1\MECH\'
*DIM,_wb_userfiles_dir,string,248
_wb_userfiles_dir(1) = 'C:\Users\CJ\PycharmProjects\DesignOptimization2021Fall\Project\Project 2 Ansys\Project 2_dp1_files\user_files\'
/com,--- Data in consistent NMM units. See Solving Units in the help system for more information.
/units,MPA
/nopr
/wb,file,start              !  signify a WB generated input file
/prep7
! Turn off shape checking because checks already performed inside WB mesher.
! See help system for more information.
SHPP,OFF,,NOWARN
/nolist
etcon,set             ! allow ANSYS to choose best KEYOP's for 180x elements, resets any applicable keyopt to MAPDL defaults
/com,*********** Nodes for the whole assembly ***********
nblock,3,,9218
(1i9,3e20.9e3)
        1    -1.040345886E-14     4.000000000E+01     8.495068837E+01
        2    -1.766224126E+01     4.000000000E+01     8.309431201E+01
        3    -3.455255781E+01     4.000000000E+01     7.760631548E+01
        4    -4.993276180E+01     4.000000000E+01     6.872655058E+01
        5    -6.313066448E+01     4.000000000E+01     5.684310562E+01
        6    -7.356945420E+01     4.000000000E+01     4.247534419E+01
        7    -8.079290574E+01     4.000000000E+01     2.625120639E+01
        8    -8.448531961E+01     4.000000000E+01     8.879764909E+00
        9    -8.448531961E+01     4.000000000E+01    -8.879764909E+00
       10    -8.079290574E+01     4.000000000E+01    -2.625120639E+01
       11    -7.356945420E+01     4.000000000E+01    -4.247534419E+01
       12    -6.313066448E+01     4.000000000E+01    -5.684310562E+01
       13    -4.993276180E+01     4.000000000E+01    -6.872655058E+01
       14    -3.455255781E+01     4.000000000E+01    -7.760631548E+01
       15    -1.766224126E+01     4.000000000E+01    -8.309431201E+01
       16     1.110223025E-13     4.000000000E+01    -8.495068837E+01
       17     1.766224126E+01     4.000000000E+01    -8.309431201E+01
       18     3.455255781E+01     4.000000000E+01    -7.760631548E+01
       19     4.993276180E+01     4.000000000E+01    -6.872655058E+01
       20     6.313066448E+01     4.000000000E+01    -5.684310562E+01
! ... 8361 like lines cut
/wb,elem,start            !  set before creation of elements
/com,*********** Elements for Body 1 "Solid" ***********
et,1,187
eblock,19,solid,,4311
(19i9)
        1        1        1        1        0        0        0        0       10        0        1      906     1320     1416     1410     6468     8258     6472     6471
     8255     8380
        1        1        1        1        0        0        0        0       10        0        2      906     1416     1320     1331     6472     8258     6468     6470
     8301     8253
        1        1        1        1        0        0        0        0       10        0        3     1298     1416     1320     1410     8184     8258     8181     8183
     8380     8255
        1        1        1        1        0        0        0        0       10        0        4     1157     1298     1416     1320     7520     8184     7525     7522
     8181     8258
        1        1        1        1        0        0        0        0       10        0        5     1157     1416     1222     1320     7525     7880     7519     7522
     8258     7877
        1        1        1        1        0        0        0        0       10        0        6     1222     1320     1416     1331     7877     8258     7880     7878
     8253     8301
        1        1        1        1        0        0        0        0       10        0        7      905      906     1416     1324     6458     6472     6464     6460
     6469     8282
        1        1        1        1        0        0        0        0       10        0        8      905     1416      906     1331     6464     6472     6458     6461
     8301     6470
        1        1        1        1        0        0        0        0       10        0        9     1157     1171     1416     1298     7517     7635     7525     7520
     7633     8184
        1        1        1        1        0        0        0        0       10        0       10     1157     1416     1171     1222     7525     7635     7517     7519
     7880     7632
! ... 8603 like lines cut
!Material Id = {AB8AE079-88A7-4BA5-B1CB-DEDBE054E738}
/wb,elem,end               !  done creating elements
/com,*********** Send User Defined Coordinate System(s) ***********
csys,0
toffst,273.15,  ! Temperature offset from absolute zero
/com,*********** Set Reference Temperature ***********
tref,22.
/wb,mat,start              !  starting to send materials
/com,*********** Send Materials ***********
Temperature = 'TEMP' ! Temperature
MP,DENS,1,7.2e-09,	! tonne mm^-3
MP,ALPX,1,1.1e-05,	! C^-1
MP,C,1,447000000,	! mm^2 s^-2 C^-1
MP,KXX,1,52,	! tonne mm s^-3 C^-1
MP,RSVX,1,9.6e-05,	! ohm mm
MP,EX,1,110000,	! tonne s^-2 mm^-1
MP,NUXY,1,0.28,
MP,MURX,1,10000,
MP,UVID,1,1e55ba3b-6eb7-440d-beac-2885ad80fc79
MP,UMID,1,f60bcced-8a07-4217-aedb-972d67ace671

/wb,mat,end                !  done sending materials
!************************* Model Summary ********************
!Solid,	Gray Cast Iron,	matid,	1
!************************* End Model Summary ********************
! get the diagonal of the bounding box. Needed later for other things
*get,_xmin,node,,mnloc,x
*get,_ymin,node,,mnloc,y
*get,_zmin,node,,mnloc,z
*get,_xmax,node,,mxloc,x
*get,_ymax,node,,mxloc,y
*get,_zmax,node,,mxloc,z
_ASMDIAG=(_xmax-_xmin)*(_xmax-_xmin)+(_ymax-_ymin)*(_ymax-_ymin)+(_zmax-_zmin)*(_zmax-_zmin)
_ASMDIAG=SQRT(_ASMDIAG)
/wb,contact,start          !  starting to send contact
/wb,contact,end            !  done creating contacts
/golist
/wb,load,start             !  starting to send loads
/gst,on,on
fini
*get,_numnode,node,0,count
*get,_numelem,elem,0,count
*get, _MAXELEMNUM, elem, 0, NUM, MAX
*get, _MAXNODENUM, node, 0, NUM, MAX
*get, _MAXELEMTYPE, etyp, 0, NUM, MAX
*get, _MAXREALCONST, real, 0, NUM, MAX
/go
/wb,load,end               !  done creating loads
/com,--- Number of total nodes = %_numnode%
/com,--- Number of contact elements = 0
/com,--- Number of spring elements = 0
/com,--- Number of bearing elements = 0
/com,--- Number of solid elements = 4311
/com,--- Number of condensed parts = 0
/com,--- Number of total elements = %_numelem%
*get,_wallbsol,active,,time,wall
/solu
antype,2                   ! modal analysis
_thickRatio=  1     ! Ratio of thick parts in the model
modopt,lanb,10
outres,erase
outres,all,none
outres,nsol,all
outres,etmp,all
mxpand                    ! default expand in case of complex solution
dmpopt,esav,no
dmpopt,emat,no
dmpopt,full,no
! *********** WB SOLVE COMMAND ***********
! check interactive state
*get,ANSINTER_,active,,int
*if,ANSINTER_,ne,0,then
/eof
*endif
solve
/com *************** Write FE CONNECTORS ********* 
CEWRITE,file,ce,,INTE
*get,_nmodalsolproc,active,0,numcpu
fini
/nopr
*get,_numnode,node,0,count
*get,_numelem,elem,0,count
*get, _MAXELEMNUM, elem, 0, NUM, MAX
*get, _MAXNODENUM, node, 0, NUM, MAX,,,INTERNAL
*get, _MAXELEMTYPE, etyp, 0, NUM, MAX
*get, _MAXREALCONST, real, 0, NUM, MAX
/gopr
*get,_wallasol,active,,time,wall
/post1
/nopr
*dim,_direction,CHAR,6,1
_direction(1) = 'X'
_direction(2) = 'Y'
_direction(3) = 'Z'
_direction(4) = 'ROTX'
_direction(5) = 'ROTY'
_direction(6) = 'ROTZ'
*get,_lastLS,active,0,set,LSTP
*get,_beginset,active,0,set,nset,first,_lastLS
*get,_endset,active,0,set,nset,last,_lastLS
_nummodes = 0
*if,_endset,gt,0,then
_nummodes = _endset - _beginset + 1
*endif
*do,i_mode,1,_nummodes
   *do,j_component,1,6
			*get,PFACT_%i_mode%_%j_component%,MODE,%i_mode%,PFACT,,DIREC,_direction(%j_component%)
   *enddo
*enddo
*dim,_tmdirection,CHAR,6,1
_tmdirection(1) = 'X'
_tmdirection(2) = 'Y'
_tmdirection(3) = 'Z'
_tmdirection(4) = 'X'
_tmdirection(5) = 'Y'
_tmdirection(6) = 'Z'
*do,j_component,1,6
    *if,j_component,gt,3,then
        *get,TOTALMASS_%j_component%,ELEM,0,IOR,_tmdirection(%j_component%)
    *else
        *get,TOTALMASS_%j_component%,ELEM,0,MTOT,_tmdirection(%j_component%)
    *endif
*enddo
/gopr
xmlo,ENCODING,ISO-8859-1
xmlo,parm
/xml,parm,xml
fini
/gopr
*get,_walldone,active,,time,wall
_preptime=(_wallbsol-_wallstrt)*3600
_solvtime=(_wallasol-_wallbsol)*3600
_posttime=(_walldone-_wallasol)*3600
_totaltim=(_walldone-_wallstrt)*3600
*get,_dlbratio,active,0,solu,dlbr
*get,_combtime,active,0,solu,comb
*get,_ssmode,active,0,solu,ssmm
*get,_ndofs,active,0,solu,ndof
/com,--- Total number of nodes = %_numnode%
/com,--- Total number of elements = %_numelem%
/com,--- Element load balance ratio = %_dlbratio%
/com,--- Time to combine distributed files = %_combtime%
/com,--- Sparse memory mode = %_ssmode%
/com,--- Number of DOF = %_ndofs%
/wb,file,end               ! done with WB generated input
