/batch
/config,noeldb,1     ! force off writing results to database
*get,_wallstrt,active,,time,wall
! ANSYS input file written by Workbench version 2021 R2
! File used for geometry attach: C:\Users\CJ\PycharmProjects\DesignOptimization2021Fall\Project\tutorial_ansys\brake.agdb
/title,Project 2--Static Structural (B5)
! ****** Begin Custom Load Command Snippet ******
/COM, ACT Extensions:
/COM,     LSDYNA, 2021.1
/COM,     5f463412-bd3e-484b-87e7-cbc0a665e474, wbex
/COM,
! ****** End   Custom Load Command Snippet ******
*DIM,_wb_ProjectScratch_dir,string,248
_wb_ProjectScratch_dir(1) = 'C:\Users\CJ\PycharmProjects\DesignOptimization2021Fall\Project\Project 2 Ansys\_ProjectScratch\Scr0DA5\'
*DIM,_wb_SolverFiles_dir,string,248
_wb_SolverFiles_dir(1) = 'C:\Users\CJ\PycharmProjects\DesignOptimization2021Fall\Project\Project 2 Ansys\Project 2_files\dp0\SYS\MECH\'
*DIM,_wb_userfiles_dir,string,248
_wb_userfiles_dir(1) = 'C:\Users\CJ\PycharmProjects\DesignOptimization2021Fall\Project\Project 2 Ansys\Project 2_files\user_files\'
/com,--- Data in consistent NMM units. See Solving Units in the help system for more information.
/units,MPA
/nopr
/wb,file,start              !  signify a WB generated input file
/prep7
! Turn off shape checking because checks already performed inside WB mesher.
! See help system for more information.
SHPP,OFF,,NOWARN
/nolist
etcon,set             ! allow ANSYS to choose best KEYOP's for 180x elements, resets any applicable keyopt to MAPDL defaults
/com,*********** Nodes for the whole assembly ***********
nblock,3,,12838
(1i9,3e20.9e3)
        1    -8.572527594E-15     4.000000000E+01     7.000000000E+01
        2    -1.740829210E+01     4.000000000E+01     6.780082128E+01
        3    -3.372275719E+01     4.000000000E+01     6.134146760E+01
        4    -4.791829742E+01     4.000000000E+01     5.102780392E+01
        5    -5.910295479E+01     4.000000000E+01     3.750787565E+01
        6    -6.657395614E+01     4.000000000E+01     2.163118961E+01
        7    -6.986187099E+01     4.000000000E+01     4.395336367E+00
        8    -6.876010755E+01     4.000000000E+01    -1.311669202E+01
        9    -6.333789367E+01     4.000000000E+01    -2.980455041E+01
       10    -5.393592699E+01     4.000000000E+01    -4.461967928E+01
       11    -4.114496766E+01     4.000000000E+01    -5.663118961E+01
       12    -2.576871869E+01     4.000000000E+01    -6.508435401E+01
       13    -8.773326350E+00     4.000000000E+01    -6.944802909E+01
       14     8.773326350E+00     4.000000000E+01    -6.944802909E+01
       15     2.576871869E+01     4.000000000E+01    -6.508435401E+01
       16     4.114496766E+01     4.000000000E+01    -5.663118961E+01
       17     5.393592699E+01     4.000000000E+01    -4.461967928E+01
       18     6.333789367E+01     4.000000000E+01    -2.980455041E+01
       19     6.876010755E+01     4.000000000E+01    -1.311669202E+01
       20     6.986187099E+01     4.000000000E+01     4.395336367E+00
! ... 11652 like lines cut
/com,*********** Nodes for all Remote Points ***********
nblock,3
(1i9,3e20.9e3)
    11672     0.000000000E+00    -2.749999985E+01     1.292034336E-17
    11673     0.000000000E+00    -2.749999985E+01     1.292034336E-17
-1
/wb,elem,start            !  set before creation of elements
/com,*********** Elements for Body 1 "Solid" ***********
et,1,187
eblock,19,solid,,3026
(19i9)
        1        1        1        1        0        0        0        0       10        0        1      213     1006      673      389     2598     4942     2595     2591
     3809     3806
        1        1        1        1        0        0        0        0       10        0        2      213      625     1006      980     2593     4786     2598     2597
     4785     5909
        1        1        1        1        0        0        0        0       10        0        3      213      625      673     1006     2593     4784     2595     2598
     4786     4942
        1        1        1        1        0        0        0        0       10        0        4      181      389     1006      908     2363     3809     2369     2368
     3808     5753
        1        1        1        1        0        0        0        0       10        0        5      181      389      673     1006     2363     3806     2366     2369
     3809     4942
        1        1        1        1        0        0        0        0       10        0        6      388      625     1006      673     3800     4786     3803     3802
     4784     4942
        1        1        1        1        0        0        0        0       10        0        7      180     1006      672      905     2362     4941     2357     2360
     5739     4938
        1        1        1        1        0        0        0        0       10        0        8      180      388      672     1006     2354     3801     2357     2362
     3803     4941
        1        1        1        1        0        0        0        0       10        0        9      212     1006      388      625     2590     3803     2585     2588
     4786     3800
        1        1        1        1        0        0        0        0       10        0       10      388      673     1006      561     3802     4942     3803     3799
     4527     4529
! ... 6033 like lines cut
!Material Id = {53D035FE-1FAF-47DF-88C7-91DA346BBD0F}
/com,*********** Elements for Body 2 "Solid" ***********
et,2,187
eblock,19,solid,,1316
(19i9)
        2        2        2        2        0        0        0        0       10        0     3027     6010     6026     6011     6981     7542     7547     7540     7545
     7715     7550
        2        2        2        2        0        0        0        0       10        0     3028     6010     6011     6891     6981     7540     7548     7544     7545
     7550    11523
        2        2        2        2        0        0        0        0       10        0     3029     6026     6701     6981     6972     7709    10991     7715     7714
    10990    11647
        2        2        2        2        0        0        0        0       10        0     3030     6011     6891     6981     6907     7548    11523     7550     7549
    11521    11541
        2        2        2        2        0        0        0        0       10        0     3031     6011     6981     6026     6907     7550     7715     7547     7549
    11541     7711
        2        2        2        2        0        0        0        0       10        0     3032     6026     6981     6701     6907     7715    10991     7709     7711
    11541    10988
        2        2        2        2        0        0        0        0       10        0     3033     6701     6981     6945     6907    10991    11593    10989    10988
    11541    11540
        2        2        2        2        0        0        0        0       10        0     3034     6010     6025     6026     6981     7541     7699     7542     7545
     7707     7715
        2        2        2        2        0        0        0        0       10        0     3035     6010     6891     6616     6981     7544    10510     7543     7545
    11523    10513
        2        2        2        2        0        0        0        0       10        0     3036     6891     6945     6981     6907    11522    11593    11523    11521
    11540    11541
! ... 2613 like lines cut
!Material Id = {D32244CD-CFC6-417D-93F7-A411BB2FD2CE}
/com,*********** Elements for Body 3 "Solid" ***********
et,3,187
eblock,19,solid,,1233
(19i9)
        3        3        2        3        0        0        0        0       10        0     4343     6145     6986     6404     7003     8424     9772     8421     8427
    11657     9773
        3        3        2        3        0        0        0        0       10        0     4344     6228     6405     7003     6462     9029     9778     9031     9030
     9774     9907
        3        3        2        3        0        0        0        0       10        0     4345     6462     7003     7000     7002     9907    11670     9905     9906
    11671    11669
        3        3        2        3        0        0        0        0       10        0     4346     6228     6404     7003     6405     9028     9773     9031     9029
     9770     9778
        3        3        2        3        0        0        0        0       10        0     4347     6308     6462     7003     7000     9451     9907     9455     9454
     9905    11670
        3        3        2        3        0        0        0        0       10        0     4348     6228     7003     6308     6462     9031     9455     9027     9030
     9907     9451
        3        3        2        3        0        0        0        0       10        0     4349     6178     6289     6311     7003     8681     9370     8683     8688
     9375     9467
        3        3        2        3        0        0        0        0       10        0     4350     6289     7003     6404     6986     9375     9773     9372     9374
    11657     9772
        3        3        2        3        0        0        0        0       10        0     4351     6228     6404     6289     7003     9028     9372     9026     9031
     9773     9375
        3        3        2        3        0        0        0        0       10        0     4352     6178     6308     7003     7000     8682     9455     8688     8687
     9454    11670
! ... 2447 like lines cut
!Material Id = {5B354B16-160F-446C-A262-007170286292}
/wb,elem,end               !  done creating elements
/com,*********** Send User Defined Coordinate System(s) ***********
local,12,0,0.,-27.4999998509884,1.29203433560791e-017,-180.,-90.,-180.
csys,0
toffst,273.15,  ! Temperature offset from absolute zero
/com,*********** Set Reference Temperature ***********
tref,22.
/wb,mat,start              !  starting to send materials
/com,*********** Send Materials ***********
Temperature = 'TEMP' ! Temperature
MP,DENS,1,7.2e-09,	! tonne mm^-3
MP,ALPX,1,1.1e-05,	! C^-1
MP,C,1,447000000,	! mm^2 s^-2 C^-1
MP,KXX,1,52,	! tonne mm s^-3 C^-1
MP,RSVX,1,9.6e-05,	! ohm mm
MP,EX,1,110000,	! tonne s^-2 mm^-1
MP,NUXY,1,0.28,
MP,MURX,1,10000,
MP,UVID,1,1e55ba3b-6eb7-440d-beac-2885ad80fc79
MP,UMID,1,f60bcced-8a07-4217-aedb-972d67ace671

Temperature = 'TEMP' ! Temperature
MP,DENS,2,7.85e-09,	! tonne mm^-3
MP,ALPX,2,1.2e-05,	! C^-1
MP,C,2,434000000,	! mm^2 s^-2 C^-1
MP,KXX,2,60.5,	! tonne mm s^-3 C^-1
MP,RSVX,2,0.00017,	! ohm mm
MP,EX,2,200000,	! tonne s^-2 mm^-1
MP,NUXY,2,0.3,
MP,MURX,2,10000,
MP,UVID,2,e010d15e-155b-4fae-ae6b-8d6bb5e3ee05
MP,UMID,2,59002a79-71c2-428e-906b-55d7dbee100e

Temperature = 'TEMP' ! Temperature
MP,DENS,3,7.85e-09,	! tonne mm^-3
MP,ALPX,3,1.2e-05,	! C^-1
MP,C,3,434000000,	! mm^2 s^-2 C^-1
MP,KXX,3,60.5,	! tonne mm s^-3 C^-1
MP,RSVX,3,0.00017,	! ohm mm
MP,EX,3,200000,	! tonne s^-2 mm^-1
MP,NUXY,3,0.3,
MP,MURX,3,10000,
MP,UVID,3,e010d15e-155b-4fae-ae6b-8d6bb5e3ee05
MP,UMID,3,59002a79-71c2-428e-906b-55d7dbee100e

/wb,mat,end                !  done sending materials
!************************* Model Summary ********************
!Solid,	Gray Cast Iron,	matid,	1
!Solid,	Structural Steel,	matid,	2
!Solid,	Structural Steel,	matid,	3
!************************* End Model Summary ********************
! get the diagonal of the bounding box. Needed later for other things
*get,_xmin,node,,mnloc,x
*get,_ymin,node,,mnloc,y
*get,_zmin,node,,mnloc,z
*get,_xmax,node,,mxloc,x
*get,_ymax,node,,mxloc,y
*get,_zmax,node,,mxloc,z
_ASMDIAG=(_xmax-_xmin)*(_xmax-_xmin)+(_ymax-_ymin)*(_ymax-_ymin)+(_zmax-_zmin)*(_zmax-_zmin)
_ASMDIAG=SQRT(_ASMDIAG)
/wb,contact,start          !  starting to send contact
/com,*********** Create Contact "Contact Region" ***********
/com,            Real Constant Set For Above Contact Is 5 & 4 
*set,tid,5
*set,cid,4
r,tid
r,cid
et,tid,170
et,cid,174
eblock,10,,,84
(15i9)
     9387        5        5        5        0      112      126      113      113     1849     1860      113     1848
     9388        5        5        5        0      112      157      126      126     1850     1994      126     1849
     9389        5        5        5        0      115      128      116      116     1880     1892      116     1879
     9390        5        5        5        0      114      130      115      115     1870     1882      115     1869
     9391        5        5        5        0      115      130      129      129     1882     2011      129     1881
     9392        5        5        5        0      113      126      131      131     1860     1993      131     1861
     9393        5        5        5        0      113      131      114      114     1861     1871      114     1859
     9394        5        5        5        0      115      129      128      128     1881     2004      128     1880
     9395        5        5        5        0      114      131      130      130     1871     2017      130     1870
     9396        5        5        5        0      116      127      117      117     1891     1904      117     1890
     9397        5        5        5        0      117      127      125      125     1904     1986      125     1903
     9398        5        5        5        0      116      128      127      127     1892     1999      127     1891
     9399        5        5        5        0      117      125      118      118     1903     1913      118     1902
     9400        5        5        5        0      118      125      132      132     1913     1987      132     1914
     9401        5        5        5        0      130      131      815      815     2017     2025      815     2018
     9402        5        5        5        0      196      254      815      815     2467     2909      815     2470
     9403        5        5        5        0      129      816      817      817     2012     5274      817     2013
     9404        5        5        5        0      129      130      816      816     2011     2019      816     2012
     9405        5        5        5        0      570      816      815      815     4561     5269      815     4560
     9406        5        5        5        0      249      814      573      573     2875     4575      573     2872
! ... 65 like lines cut
eblock,10,,,84
(15i9)
     9471        4        4        4        0      112      126      113      113     1849     1860      113     1848
     9472        4        4        4        0      112      157      126      126     1850     1994      126     1849
     9473        4        4        4        0      115      128      116      116     1880     1892      116     1879
     9474        4        4        4        0      114      130      115      115     1870     1882      115     1869
     9475        4        4        4        0      115      130      129      129     1882     2011      129     1881
     9476        4        4        4        0      113      126      131      131     1860     1993      131     1861
     9477        4        4        4        0      113      131      114      114     1861     1871      114     1859
     9478        4        4        4        0      115      129      128      128     1881     2004      128     1880
     9479        4        4        4        0      114      131      130      130     1871     2017      130     1870
     9480        4        4        4        0      116      127      117      117     1891     1904      117     1890
     9481        4        4        4        0      117      127      125      125     1904     1986      125     1903
     9482        4        4        4        0      116      128      127      127     1892     1999      127     1891
     9483        4        4        4        0      117      125      118      118     1903     1913      118     1902
     9484        4        4        4        0      118      125      132      132     1913     1987      132     1914
     9485        4        4        4        0      130      131      815      815     2017     2025      815     2018
     9486        4        4        4        0      196      254      815      815     2467     2909      815     2470
     9487        4        4        4        0      129      816      817      817     2012     5274      817     2013
     9488        4        4        4        0      129      130      816      816     2011     2019      816     2012
     9489        4        4        4        0      570      816      815      815     4561     5269      815     4560
     9490        4        4        4        0      249      814      573      573     2875     4575      573     2872
! ... 65 like lines cut
eblock,10,,,887
(15i9)
     9555        4        5        4        0     6639     6705     6803     6803    10643    11006     6803    10645
     9556        4        5        4        0     6571     6699     6806     6806    10197    10978     6806    10198
     9557        4        5        4        0     6561     6704     6724     6724    10120    11000     6724    10121
     9558        4        5        4        0     6563     6914     6692     6692    10139    10940     6692    10135
     9559        4        5        4        0     6568     6692     6912     6912    10171    10939     6912    10175
     9560        4        5        4        0     6615     6670     6819     6819    10502    10823     6819    10505
     9561        4        5        4        0     6618     6728     6773     6773    10520    11100     6773    10521
     9562        4        5        4        0     6575     6586     6744     6744    10228    10311     6744    10229
     9563        4        5        4        0     6832     6752     6669     6669    11188    10817     6669    10819
     9564        4        5        4        0     6574     6943     6853     6853    10227    11451     6853    10226
     9565        4        5        4        0     6644     6896     6678     6678    10672    10870     6678    10670
     9566        4        5        4        0     6576     6588     6597     6597    10235    10323     6597    10236
     9567        4        5        4        0     6577     6741     6879     6879    10244    11151     6879    10247
     9568        4        5        4        0     6720     6902     6901     6901    11075    11536     6901    11074
     9569        4        5        4        0     6595     6712     6676     6676    10378    10855     6676    10376
     9570        4        5        4        0     6671     6806     6822     6822    10826    11343     6822    10828
     9571        4        5        4        0     6564     6741     6673     6673    10146    10839     6673    10144
     9572        4        5        4        0     6615     6801     6740     6740    10504    11148     6740    10503
     9573        4        5        4        0     6595     6681     6712     6712    10377    10884     6712    10378
     9574        4        5        4        0     6632     6750     6774     6774    10602    11181     6774    10604
! ... 868 like lines cut
eblock,10,,,887
(15i9)
    10442        5        4        5        0     6639     6705     6803     6803    10643    11006     6803    10645
    10443        5        4        5        0     6571     6699     6806     6806    10197    10978     6806    10198
    10444        5        4        5        0     6561     6704     6724     6724    10120    11000     6724    10121
    10445        5        4        5        0     6563     6914     6692     6692    10139    10940     6692    10135
    10446        5        4        5        0     6568     6692     6912     6912    10171    10939     6912    10175
    10447        5        4        5        0     6615     6670     6819     6819    10502    10823     6819    10505
    10448        5        4        5        0     6618     6728     6773     6773    10520    11100     6773    10521
    10449        5        4        5        0     6575     6586     6744     6744    10228    10311     6744    10229
    10450        5        4        5        0     6832     6752     6669     6669    11188    10817     6669    10819
    10451        5        4        5        0     6574     6943     6853     6853    10227    11451     6853    10226
    10452        5        4        5        0     6644     6896     6678     6678    10672    10870     6678    10670
    10453        5        4        5        0     6576     6588     6597     6597    10235    10323     6597    10236
    10454        5        4        5        0     6577     6741     6879     6879    10244    11151     6879    10247
    10455        5        4        5        0     6720     6902     6901     6901    11075    11536     6901    11074
    10456        5        4        5        0     6595     6712     6676     6676    10378    10855     6676    10376
    10457        5        4        5        0     6671     6806     6822     6822    10826    11343     6822    10828
    10458        5        4        5        0     6564     6741     6673     6673    10146    10839     6673    10144
    10459        5        4        5        0     6615     6801     6740     6740    10504    11148     6740    10503
    10460        5        4        5        0     6595     6681     6712     6712    10377    10884     6712    10378
    10461        5        4        5        0     6632     6750     6774     6774    10602    11181     6774    10604
! ... 868 like lines cut
keyo,cid,8,2               ! auto create asymmetric contact (from Program Controlled setting)
keyo,cid,10,0              ! adjust contact stiffness each NR iteration (from Program Controlled setting)
keyo,cid,12,5              ! bonded always
keyo,cid,18,1              ! small sliding turned on by application
keyo,cid,2,0               ! augmented Lagrange (from Program Controlled setting)
keyo,cid,4,0               ! on Gauss point (from Program Controlled setting)
keyo,cid,9,1               ! ignore initial gaps/penetration
keyo,cid,7,0               ! No Prediction
rmod,tid,3,1.       ! FKN
rmod,tid,5,0.       ! ICONT
rmod,tid,6,0.       ! PINB
rmod,tid,10,0.      ! CNOF
rmod,tid,12,0.      ! FKT
rmod,tid,36,30      ! WB DSID
rmod,cid,3,1.       ! FKN
rmod,cid,5,0.       ! ICONT
rmod,cid,6,0.       ! PINB
rmod,cid,10,0.      ! CNOF
rmod,cid,12,0.      ! FKT
rmod,cid,36,30      ! WB DSID
/com,*********** Create Contact "Contact Region 2" ***********
/com,            Real Constant Set For Above Contact Is 7 & 6 
*set,tid,7
*set,cid,6
r,tid
r,cid
et,tid,170
et,cid,174
eblock,10,,,83
(15i9)
    11329        7        7        7        0       18       19       26       26     1121     1130       26     1122
    11330        7        7        7        0       19       58       26       26     1131     1176       26     1130
    11331        7        7        7        0       18       26       28       28     1122     1175       28     1123
    11332        7        7        7        0       17       29       30       30     1115     1193       30     1116
    11333        7        7        7        0       16       30       31       31     1108     1202       31     1109
    11334        7        7        7        0       17       18       29       29     1114     1124       29     1115
    11335        7        7        7        0       16       17       30       30     1107     1116       30     1108
    11336        7        7        7        0       14       27       33       33     1095     1183       33     1096
    11337        7        7        7        0       15       16       32       32     1101     1110       32     1103
    11338        7        7        7        0       14       15       27       27     1094     1102       27     1095
    11339        7        7        7        0       15       32       27       27     1103     1182       27     1102
    11340        7        7        7        0       16       31       32       32     1109     1208       32     1110
    11341        7        7        7        0       18       28       29       29     1123     1188       29     1124
    11342        7        7        7        0      203      615      229      229     2520     2717      229     2517
    11343        7        7        7        0       59      640      582      582     1422     4609      582     1420
    11344        7        7        7        0       59      616      228      228     1421     2707      228     1418
    11345        7        7        7        0       59      228      640      640     1418     2708      640     1422
    11346        7        7        7        0      228      616      641      641     2707     4759      641     2709
    11347        7        7        7        0      203      641      616      616     2522     4759      616     2521
    11348        7        7        7        0      202      230      642      642     2511     2725      642     2514
! ... 64 like lines cut
eblock,10,,,83
(15i9)
    11412        6        6        6        0       18       19       26       26     1121     1130       26     1122
    11413        6        6        6        0       19       58       26       26     1131     1176       26     1130
    11414        6        6        6        0       18       26       28       28     1122     1175       28     1123
    11415        6        6        6        0       17       29       30       30     1115     1193       30     1116
    11416        6        6        6        0       16       30       31       31     1108     1202       31     1109
    11417        6        6        6        0       17       18       29       29     1114     1124       29     1115
    11418        6        6        6        0       16       17       30       30     1107     1116       30     1108
    11419        6        6        6        0       14       27       33       33     1095     1183       33     1096
    11420        6        6        6        0       15       16       32       32     1101     1110       32     1103
    11421        6        6        6        0       14       15       27       27     1094     1102       27     1095
    11422        6        6        6        0       15       32       27       27     1103     1182       27     1102
    11423        6        6        6        0       16       31       32       32     1109     1208       32     1110
    11424        6        6        6        0       18       28       29       29     1123     1188       29     1124
    11425        6        6        6        0      203      615      229      229     2520     2717      229     2517
    11426        6        6        6        0       59      640      582      582     1422     4609      582     1420
    11427        6        6        6        0       59      616      228      228     1421     2707      228     1418
    11428        6        6        6        0       59      228      640      640     1418     2708      640     1422
    11429        6        6        6        0      228      616      641      641     2707     4759      641     2709
    11430        6        6        6        0      203      641      616      616     2522     4759      616     2521
    11431        6        6        6        0      202      230      642      642     2511     2725      642     2514
! ... 64 like lines cut
eblock,10,,,859
(15i9)
    11495        6        7        6        0     6266     6354     6340     6340     9258     9579     6340     9257
    11496        6        7        6        0     6239     6368     6537     6537     9091     9679     6537     9094
    11497        6        7        6        0     6204     6439     6386     6386     8875     9735     6386     8873
    11498        6        7        6        0     6295     6396     6446     6446     9398     9754     6446     9400
    11499        6        7        6        0     6242     6504     6374     6374     9107     9695     6374     9105
    11500        6        7        6        0     6188     6210     6201     6201     8759     8850     6201     8758
    11501        6        7        6        0     6193     6360     6526     6526     8798     9651     6526     8799
    11502        6        7        6        0     6241     6371     6539     6539     9100     9687     6539     9103
    11503        6        7        6        0     6174     6333     6300     6300     8655     9424     6300     8654
    11504        6        7        6        0     6196     6331     6279     6279     8819     9329     6279     8815
    11505        6        7        6        0     6293     6468     6388     6388     9391     9743     6388     9390
    11506        6        7        6        0     6176     6353     6290     6290     8670     9376     6290     8668
    11507        6        7        6        0     6284     6412     6461     6461     9347     9792     6461     9350
    11508        6        7        6        0     6228     6462     6308     6308     9030     9451     6308     9027
    11509        6        7        6        0     6249     6498     6323     6323     9145     9522     6323     9142
    11510        6        7        6        0     6180     6477     6524     6524     8701     9929     6524     8703
    11511        6        7        6        0     6291     6454     6465     6465     9381     9888     6465     9382
    11512        6        7        6        0     6164     6376     6403     6403     8576     9702     6403     8577
    11513        6        7        6        0     6168     6321     6218     6218     8605     8965     6218     8603
    11514        6        7        6        0     6191     6386     6314     6314     8784     9480     6314     8781
! ... 840 like lines cut
eblock,10,,,859
(15i9)
    12354        7        6        7        0     6266     6354     6340     6340     9258     9579     6340     9257
    12355        7        6        7        0     6239     6368     6537     6537     9091     9679     6537     9094
    12356        7        6        7        0     6204     6439     6386     6386     8875     9735     6386     8873
    12357        7        6        7        0     6295     6396     6446     6446     9398     9754     6446     9400
    12358        7        6        7        0     6242     6504     6374     6374     9107     9695     6374     9105
    12359        7        6        7        0     6188     6210     6201     6201     8759     8850     6201     8758
    12360        7        6        7        0     6193     6360     6526     6526     8798     9651     6526     8799
    12361        7        6        7        0     6241     6371     6539     6539     9100     9687     6539     9103
    12362        7        6        7        0     6174     6333     6300     6300     8655     9424     6300     8654
    12363        7        6        7        0     6196     6331     6279     6279     8819     9329     6279     8815
    12364        7        6        7        0     6293     6468     6388     6388     9391     9743     6388     9390
    12365        7        6        7        0     6176     6353     6290     6290     8670     9376     6290     8668
    12366        7        6        7        0     6284     6412     6461     6461     9347     9792     6461     9350
    12367        7        6        7        0     6228     6462     6308     6308     9030     9451     6308     9027
    12368        7        6        7        0     6249     6498     6323     6323     9145     9522     6323     9142
    12369        7        6        7        0     6180     6477     6524     6524     8701     9929     6524     8703
    12370        7        6        7        0     6291     6454     6465     6465     9381     9888     6465     9382
    12371        7        6        7        0     6164     6376     6403     6403     8576     9702     6403     8577
    12372        7        6        7        0     6168     6321     6218     6218     8605     8965     6218     8603
    12373        7        6        7        0     6191     6386     6314     6314     8784     9480     6314     8781
! ... 840 like lines cut
keyo,cid,8,2               ! auto create asymmetric contact (from Program Controlled setting)
keyo,cid,10,0              ! adjust contact stiffness each NR iteration (from Program Controlled setting)
keyo,cid,12,5              ! bonded always
keyo,cid,18,1              ! small sliding turned on by application
keyo,cid,2,0               ! augmented Lagrange (from Program Controlled setting)
keyo,cid,4,0               ! on Gauss point (from Program Controlled setting)
keyo,cid,9,1               ! ignore initial gaps/penetration
keyo,cid,7,0               ! No Prediction
rmod,tid,3,1.       ! FKN
rmod,tid,5,0.       ! ICONT
rmod,tid,6,0.       ! PINB
rmod,tid,10,0.      ! CNOF
rmod,tid,12,0.      ! FKT
rmod,tid,36,33      ! WB DSID
rmod,cid,3,1.       ! FKN
rmod,cid,5,0.       ! ICONT
rmod,cid,6,0.       ! PINB
rmod,cid,10,0.      ! CNOF
rmod,cid,12,0.      ! FKT
rmod,cid,36,33      ! WB DSID
/com,*********** Create Contact "Frictional - Solid To Solid" ***********
/com,            Real Constant Set For Above Contact Is 9 & 8 
*set,tid,9
*set,cid,8
r,tid
r,cid
et,tid,170
et,cid,174
eblock,10,,,36
(15i9)
    13213        9        9        9        0      130      131      815      815     2017     2025      815     2018
    13214        9        9        9        0      196      254      815      815     2467     2909      815     2470
    13215        9        9        9        0      129      816      817      817     2012     5274      817     2013
    13216        9        9        9        0      129      130      816      816     2011     2019      816     2012
    13217        9        9        9        0      570      816      815      815     4561     5269      815     4560
    13218        9        9        9        0      249      814      573      573     2875     4575      573     2872
    13219        9        9        9        0      250      573      814      814     2879     4575      814     2881
    13220        9        9        9        0      254      663      815      815     2906     4921      815     2909
    13221        9        9        9        0      253      815      663      663     2902     4921      663     2900
    13222        9        9        9        0      254      612      664      664     2905     4742      664     2907
    13223        9        9        9        0      127      128      814      814     1999     2005      814     2000
    13224        9        9        9        0      126      196      131      131     1995     2023      131     1993
    13225        9        9        9        0      131      196      815      815     2023     2470      815     2025
    13226        9        9        9        0      158      597      661      661     2198     4676      661     2200
    13227        9        9        9        0      252      816      570      570     2896     4561      570     2893
    13228        9        9        9        0      250      814      817      817     2881     5264      817     2882
    13229        9        9        9        0      196      612      254      254     2469     2905      254     2467
    13230        9        9        9        0      249      662      814      814     2873     4915      814     2875
    13231        9        9        9        0      252      571      816      816     2894     4568      816     2896
    13232        9        9        9        0      253      570      815      815     2899     4560      815     2902
! ... 17 like lines cut
eblock,10,,,36
(15i9)
    13249        8        8        8        0      130      131      815      815     2017     2025      815     2018
    13250        8        8        8        0      196      254      815      815     2467     2909      815     2470
    13251        8        8        8        0      129      816      817      817     2012     5274      817     2013
    13252        8        8        8        0      129      130      816      816     2011     2019      816     2012
    13253        8        8        8        0      570      816      815      815     4561     5269      815     4560
    13254        8        8        8        0      249      814      573      573     2875     4575      573     2872
    13255        8        8        8        0      250      573      814      814     2879     4575      814     2881
    13256        8        8        8        0      254      663      815      815     2906     4921      815     2909
    13257        8        8        8        0      253      815      663      663     2902     4921      663     2900
    13258        8        8        8        0      254      612      664      664     2905     4742      664     2907
    13259        8        8        8        0      127      128      814      814     1999     2005      814     2000
    13260        8        8        8        0      126      196      131      131     1995     2023      131     1993
    13261        8        8        8        0      131      196      815      815     2023     2470      815     2025
    13262        8        8        8        0      158      597      661      661     2198     4676      661     2200
    13263        8        8        8        0      252      816      570      570     2896     4561      570     2893
    13264        8        8        8        0      250      814      817      817     2881     5264      817     2882
    13265        8        8        8        0      196      612      254      254     2469     2905      254     2467
    13266        8        8        8        0      249      662      814      814     2873     4915      814     2875
    13267        8        8        8        0      252      571      816      816     2894     4568      816     2896
    13268        8        8        8        0      253      570      815      815     2899     4560      815     2902
! ... 17 like lines cut
eblock,10,,,887
(15i9)
    13285        8        9        8        0     6639     6705     6803     6803    10643    11006     6803    10645
    13286        8        9        8        0     6571     6699     6806     6806    10197    10978     6806    10198
    13287        8        9        8        0     6561     6704     6724     6724    10120    11000     6724    10121
    13288        8        9        8        0     6563     6914     6692     6692    10139    10940     6692    10135
    13289        8        9        8        0     6568     6692     6912     6912    10171    10939     6912    10175
    13290        8        9        8        0     6615     6670     6819     6819    10502    10823     6819    10505
    13291        8        9        8        0     6618     6728     6773     6773    10520    11100     6773    10521
    13292        8        9        8        0     6575     6586     6744     6744    10228    10311     6744    10229
    13293        8        9        8        0     6832     6752     6669     6669    11188    10817     6669    10819
    13294        8        9        8        0     6574     6943     6853     6853    10227    11451     6853    10226
    13295        8        9        8        0     6644     6896     6678     6678    10672    10870     6678    10670
    13296        8        9        8        0     6576     6588     6597     6597    10235    10323     6597    10236
    13297        8        9        8        0     6577     6741     6879     6879    10244    11151     6879    10247
    13298        8        9        8        0     6720     6902     6901     6901    11075    11536     6901    11074
    13299        8        9        8        0     6595     6712     6676     6676    10378    10855     6676    10376
    13300        8        9        8        0     6671     6806     6822     6822    10826    11343     6822    10828
    13301        8        9        8        0     6564     6741     6673     6673    10146    10839     6673    10144
    13302        8        9        8        0     6615     6801     6740     6740    10504    11148     6740    10503
    13303        8        9        8        0     6595     6681     6712     6712    10377    10884     6712    10378
    13304        8        9        8        0     6632     6750     6774     6774    10602    11181     6774    10604
! ... 868 like lines cut
eblock,10,,,887
(15i9)
    14172        9        8        9        0     6639     6705     6803     6803    10643    11006     6803    10645
    14173        9        8        9        0     6571     6699     6806     6806    10197    10978     6806    10198
    14174        9        8        9        0     6561     6704     6724     6724    10120    11000     6724    10121
    14175        9        8        9        0     6563     6914     6692     6692    10139    10940     6692    10135
    14176        9        8        9        0     6568     6692     6912     6912    10171    10939     6912    10175
    14177        9        8        9        0     6615     6670     6819     6819    10502    10823     6819    10505
    14178        9        8        9        0     6618     6728     6773     6773    10520    11100     6773    10521
    14179        9        8        9        0     6575     6586     6744     6744    10228    10311     6744    10229
    14180        9        8        9        0     6832     6752     6669     6669    11188    10817     6669    10819
    14181        9        8        9        0     6574     6943     6853     6853    10227    11451     6853    10226
    14182        9        8        9        0     6644     6896     6678     6678    10672    10870     6678    10670
    14183        9        8        9        0     6576     6588     6597     6597    10235    10323     6597    10236
    14184        9        8        9        0     6577     6741     6879     6879    10244    11151     6879    10247
    14185        9        8        9        0     6720     6902     6901     6901    11075    11536     6901    11074
    14186        9        8        9        0     6595     6712     6676     6676    10378    10855     6676    10376
    14187        9        8        9        0     6671     6806     6822     6822    10826    11343     6822    10828
    14188        9        8        9        0     6564     6741     6673     6673    10146    10839     6673    10144
    14189        9        8        9        0     6615     6801     6740     6740    10504    11148     6740    10503
    14190        9        8        9        0     6595     6681     6712     6712    10377    10884     6712    10378
    14191        9        8        9        0     6632     6750     6774     6774    10602    11181     6774    10604
! ... 868 like lines cut
keyo,cid,8,2               ! auto create asymmetric contact (from Program Controlled setting)
keyo,cid,10,0              ! adjust contact stiffness each NR iteration (from Program Controlled setting)
keyo,cid,12,0              ! standard contact
mp,mu,cid,0.22      ! unitless
keyo,cid,18,1              ! small sliding turned on by application
keyo,cid,2,0               ! augmented Lagrange (from Program Controlled setting)
keyo,cid,4,0               ! on Gauss point (from Program Controlled setting)
keyo,cid,9,0               ! use real geometry with stepped effects
keyo,cid,7,0               ! No Prediction
rmod,tid,3,1.       ! FKN
rmod,tid,5,0.       ! ICONT
rmod,tid,6,0.       ! PINB
rmod,tid,10,0.      ! CNOF
rmod,tid,12,0.      ! FKT
rmod,tid,36,58      ! WB DSID
rmod,cid,3,1.       ! FKN
rmod,cid,5,0.       ! ICONT
rmod,cid,6,0.       ! PINB
rmod,cid,10,0.      ! CNOF
rmod,cid,12,0.      ! FKT
rmod,cid,36,58      ! WB DSID
/com,*********** Create Contact "Frictional - Solid To Solid" ***********
/com,            Real Constant Set For Above Contact Is 11 & 10 
*set,tid,11
*set,cid,10
r,tid
r,cid
et,tid,170
et,cid,174
eblock,10,,,36
(15i9)
    15059       11       11       11        0      199      812      809      809     2495     5239      809     2494
    15060       11       11       11        0       31      810       32       32     1211     1220       32     1208
    15061       11       11       11        0       60      203      581      581     1427     2519      581     1428
    15062       11       11       11        0       28      809       29       29     1189     1195       29     1188
    15063       11       11       11        0      202      615      810      810     2513     4757      810     2515
    15064       11       11       11        0      199      809      536      536     2494     4424      536     2491
    15065       11       11       11        0       30      812      811      811     1204     5251      811     1203
    15066       11       11       11        0      203      810      615      615     2524     4757      615     2520
    15067       11       11       11        0      200      812      537      537     2502     4427      537     2499
    15068       11       11       11        0       31      811      810      810     1212     5244      810     1211
    15069       11       11       11        0       32      810       60       60     1220     1430       60     1217
    15070       11       11       11        0      201      811      538      538     2509     4430      538     2506
    15071       11       11       11        0      201      539      811      811     2507     4436      811     2509
    15072       11       11       11        0       60      810      203      203     1430     2524      203     1427
    15073       11       11       11        0      202      810      539      539     2515     4435      539     2512
    15074       11       11       11        0       29      809      812      812     1195     5239      812     1196
    15075       11       11       11        0       30      811       31       31     1203     1212       31     1202
    15076       11       11       11        0      538      811      812      812     4430     5251      812     4431
    15077       11       11       11        0       29      812       30       30     1196     1204       30     1193
    15078       11       11       11        0      614      809      813      813     4750     5240      813     4751
! ... 17 like lines cut
eblock,10,,,36
(15i9)
    15095       10       10       10        0      199      812      809      809     2495     5239      809     2494
    15096       10       10       10        0       31      810       32       32     1211     1220       32     1208
    15097       10       10       10        0       60      203      581      581     1427     2519      581     1428
    15098       10       10       10        0       28      809       29       29     1189     1195       29     1188
    15099       10       10       10        0      202      615      810      810     2513     4757      810     2515
    15100       10       10       10        0      199      809      536      536     2494     4424      536     2491
    15101       10       10       10        0       30      812      811      811     1204     5251      811     1203
    15102       10       10       10        0      203      810      615      615     2524     4757      615     2520
    15103       10       10       10        0      200      812      537      537     2502     4427      537     2499
    15104       10       10       10        0       31      811      810      810     1212     5244      810     1211
    15105       10       10       10        0       32      810       60       60     1220     1430       60     1217
    15106       10       10       10        0      201      811      538      538     2509     4430      538     2506
    15107       10       10       10        0      201      539      811      811     2507     4436      811     2509
    15108       10       10       10        0       60      810      203      203     1430     2524      203     1427
    15109       10       10       10        0      202      810      539      539     2515     4435      539     2512
    15110       10       10       10        0       29      809      812      812     1195     5239      812     1196
    15111       10       10       10        0       30      811       31       31     1203     1212       31     1202
    15112       10       10       10        0      538      811      812      812     4430     5251      812     4431
    15113       10       10       10        0       29      812       30       30     1196     1204       30     1193
    15114       10       10       10        0      614      809      813      813     4750     5240      813     4751
! ... 17 like lines cut
eblock,10,,,859
(15i9)
    15131       10       11       10        0     6266     6354     6340     6340     9258     9579     6340     9257
    15132       10       11       10        0     6239     6368     6537     6537     9091     9679     6537     9094
    15133       10       11       10        0     6204     6439     6386     6386     8875     9735     6386     8873
    15134       10       11       10        0     6295     6396     6446     6446     9398     9754     6446     9400
    15135       10       11       10        0     6242     6504     6374     6374     9107     9695     6374     9105
    15136       10       11       10        0     6188     6210     6201     6201     8759     8850     6201     8758
    15137       10       11       10        0     6193     6360     6526     6526     8798     9651     6526     8799
    15138       10       11       10        0     6241     6371     6539     6539     9100     9687     6539     9103
    15139       10       11       10        0     6174     6333     6300     6300     8655     9424     6300     8654
    15140       10       11       10        0     6196     6331     6279     6279     8819     9329     6279     8815
    15141       10       11       10        0     6293     6468     6388     6388     9391     9743     6388     9390
    15142       10       11       10        0     6176     6353     6290     6290     8670     9376     6290     8668
    15143       10       11       10        0     6284     6412     6461     6461     9347     9792     6461     9350
    15144       10       11       10        0     6228     6462     6308     6308     9030     9451     6308     9027
    15145       10       11       10        0     6249     6498     6323     6323     9145     9522     6323     9142
    15146       10       11       10        0     6180     6477     6524     6524     8701     9929     6524     8703
    15147       10       11       10        0     6291     6454     6465     6465     9381     9888     6465     9382
    15148       10       11       10        0     6164     6376     6403     6403     8576     9702     6403     8577
    15149       10       11       10        0     6168     6321     6218     6218     8605     8965     6218     8603
    15150       10       11       10        0     6191     6386     6314     6314     8784     9480     6314     8781
! ... 840 like lines cut
eblock,10,,,859
(15i9)
    15990       11       10       11        0     6266     6354     6340     6340     9258     9579     6340     9257
    15991       11       10       11        0     6239     6368     6537     6537     9091     9679     6537     9094
    15992       11       10       11        0     6204     6439     6386     6386     8875     9735     6386     8873
    15993       11       10       11        0     6295     6396     6446     6446     9398     9754     6446     9400
    15994       11       10       11        0     6242     6504     6374     6374     9107     9695     6374     9105
    15995       11       10       11        0     6188     6210     6201     6201     8759     8850     6201     8758
    15996       11       10       11        0     6193     6360     6526     6526     8798     9651     6526     8799
    15997       11       10       11        0     6241     6371     6539     6539     9100     9687     6539     9103
    15998       11       10       11        0     6174     6333     6300     6300     8655     9424     6300     8654
    15999       11       10       11        0     6196     6331     6279     6279     8819     9329     6279     8815
    16000       11       10       11        0     6293     6468     6388     6388     9391     9743     6388     9390
    16001       11       10       11        0     6176     6353     6290     6290     8670     9376     6290     8668
    16002       11       10       11        0     6284     6412     6461     6461     9347     9792     6461     9350
    16003       11       10       11        0     6228     6462     6308     6308     9030     9451     6308     9027
    16004       11       10       11        0     6249     6498     6323     6323     9145     9522     6323     9142
    16005       11       10       11        0     6180     6477     6524     6524     8701     9929     6524     8703
    16006       11       10       11        0     6291     6454     6465     6465     9381     9888     6465     9382
    16007       11       10       11        0     6164     6376     6403     6403     8576     9702     6403     8577
    16008       11       10       11        0     6168     6321     6218     6218     8605     8965     6218     8603
    16009       11       10       11        0     6191     6386     6314     6314     8784     9480     6314     8781
! ... 840 like lines cut
keyo,cid,8,2               ! auto create asymmetric contact (from Program Controlled setting)
keyo,cid,10,0              ! adjust contact stiffness each NR iteration (from Program Controlled setting)
keyo,cid,12,0              ! standard contact
mp,mu,cid,0.22      ! unitless
keyo,cid,18,1              ! small sliding turned on by application
keyo,cid,2,0               ! augmented Lagrange (from Program Controlled setting)
keyo,cid,4,0               ! on Gauss point (from Program Controlled setting)
keyo,cid,9,0               ! use real geometry with stepped effects
keyo,cid,7,0               ! No Prediction
rmod,tid,3,1.       ! FKN
rmod,tid,5,0.       ! ICONT
rmod,tid,6,0.       ! PINB
rmod,tid,10,0.      ! CNOF
rmod,tid,12,0.      ! FKT
rmod,tid,36,61      ! WB DSID
rmod,cid,3,1.       ! FKN
rmod,cid,5,0.       ! ICONT
rmod,cid,6,0.       ! PINB
rmod,cid,10,0.      ! CNOF
rmod,cid,12,0.      ! FKT
rmod,cid,36,61      ! WB DSID
nsel,all
esel,all
/wb,contact,end            !  done creating contacts
/golist
/wb,load,start             !  starting to send loads
/com,******* Constant Zero Displacement X *******
CMBLOCK,_DISPZEROUX,NODE,     4132
(8i10)
      5915      5916      5917      5918      5919      5920      5921      5922
      5923      5924      5925      5926      5927      5928      5929      5930
      5931      5932      5933      5934      5935      5936      5937      5938
      5939      5940      5941      5942      5943      5944      5945      5946
      5947      5948      5949      5950      5951      5952      5953      5954
      5955      5956      5957      5958      5959      5960      5961      5962
      5963      5964      5965      5966      5967      5968      5969      5970
      5971      5972      5973      5974      5975      5976      5977      5978
      5979      5980      5981      5982      5983      5984      5985      5986
      5987      5988      5989      5990      5991      5992      5993      5994
      5995      5996      5997      5998      5999      6000      6001      6002
      6003      6004      6005      6006      6007      6008      6009      6010
      6011      6012      6013      6014      6015      6016      6017      6018
      6019      6020      6021      6022      6023      6024      6025      6026
      6027      6028      6029      6030      6031      6032      6033      6034
      6035      6036      6037      6038      6039      6040      6041      6042
      6043      6044      6045      6046      6047      6048      6049      6050
      6051      6052      6053      6054      6055      6056      6057      6058
      6059      6060      6061      6062      6063      6064      6065      6066
      6067      6068      6069      6070      6071      6072      6073      6074
! ... 497 like lines cut
cmsel,s,_DISPZEROUX
d,all,ux,0
nsel,all
/com,******* Constant Zero Displacement Z *******
CMBLOCK,_DISPZEROUZ,NODE,     4132
(8i10)
      5915      5916      5917      5918      5919      5920      5921      5922
      5923      5924      5925      5926      5927      5928      5929      5930
      5931      5932      5933      5934      5935      5936      5937      5938
      5939      5940      5941      5942      5943      5944      5945      5946
      5947      5948      5949      5950      5951      5952      5953      5954
      5955      5956      5957      5958      5959      5960      5961      5962
      5963      5964      5965      5966      5967      5968      5969      5970
      5971      5972      5973      5974      5975      5976      5977      5978
      5979      5980      5981      5982      5983      5984      5985      5986
      5987      5988      5989      5990      5991      5992      5993      5994
      5995      5996      5997      5998      5999      6000      6001      6002
      6003      6004      6005      6006      6007      6008      6009      6010
      6011      6012      6013      6014      6015      6016      6017      6018
      6019      6020      6021      6022      6023      6024      6025      6026
      6027      6028      6029      6030      6031      6032      6033      6034
      6035      6036      6037      6038      6039      6040      6041      6042
      6043      6044      6045      6046      6047      6048      6049      6050
      6051      6052      6053      6054      6055      6056      6057      6058
      6059      6060      6061      6062      6063      6064      6065      6066
      6067      6068      6069      6070      6071      6072      6073      6074
! ... 497 like lines cut
cmsel,s,_DISPZEROUZ
d,all,uz,0
nsel,all
/com,*********** Create Remote Point "Internal Remote Point 2" ***********
! -------- Remote Point Used by "Revolute - Ground To Solid" --------
*set,tid,13
*set,cid,12
et,cid,174
et,tid,170
keyo,tid,2,1               ! Don't fix the pilot node
keyo,tid,4,111111
keyo,cid,12,5              ! Bonded Contact 
keyo,cid,4,2               ! Rigid CERIG style load
keyo,cid,2,2               ! MPC style contact
eblock,10,,,26
(15i9)
    16849       12       12       12        0      267      266      280      280     2997     2999      280     3004
    16850       12       12       12        0      279      280      266      266     3067     2999      266     2998
    16851       12       12       12        0      258      257      271      271     2926     2928      271     2933
    16852       12       12       12        0      259      258      272      272     2932     2934      272     2939
    16853       12       12       12        0      270      271      257      257     3020     2928      257     2927
    16854       12       12       12        0      271      272      258      258     3026     2934      258     2933
    16855       12       12       12        0      260      259      273      273     2938     2940      273     2948
    16856       12       12       12        0      272      273      259      259     3030     2940      259     2939
    16857       12       12       12        0      263      262      276      276     2964     2966      276     2975
    16858       12       12       12        0      275      276      262      262     3047     2966      262     2965
    16859       12       12       12        0      262      261      275      275     2956     2958      275     2965
    16860       12       12       12        0      274      275      261      261     3040     2958      261     2957
    16861       12       12       12        0      264      263      277      277     2974     2976      277     2984
    16862       12       12       12        0      276      277      263      263     3052     2976      263     2975
    16863       12       12       12        0      261      260      274      274     2947     2949      274     2957
    16864       12       12       12        0      273      274      260      260     3034     2949      260     2948
    16865       12       12       12        0      265      264      278      278     2983     2985      278     2991
    16866       12       12       12        0      277      278      264      264     3058     2985      264     2984
    16867       12       12       12        0      266      265      279      279     2990     2992      279     2998
    16868       12       12       12        0      278      279      265      265     3064     2992      265     2991
! ... 7 like lines cut
*set,_npilot,11673
_npilot49=_npilot
type,tid
mat ,cid
real,cid
tshape,pilo
en,16875,_npilot
tshape
csys,12
nrot,11673
csys,0
/com,*********** Create Joint "Revolute - Ground To Solid" ***********
/com,            Real Constant Set For Above Joint Is 14
! Joint Element Type Declaration and Definition using MPC184
*set,_jid,14
et,_jid,184
keyo,_jid,1,6           ! Revolute Joint
keyo,_jid,4,1           ! Z Axis is revolute axis
sectype,_jid, joint, revo, _wbjoint
secjoint,,12,12
mat,_jid
real,_jid
type,_jid
secnum,_jid
en,9384,,11673        ! body to ground joint
/com,*********** Define Pressure Using Surface Effect Elements "Pressure" ***********
et,15,154
eblock,10,,,35
(15i9)
    16876       15       15       15        0     5950     6949     5951     5951     7189     7206     5951     7176
    16877       15       15       15        0     6020     6021     6948     6948     7631     7663     6948     7647
    16878       15       15       15        0     5953     6948     5954     5954     7221     7236     5954     7215
    16879       15       15       15        0     6015     6016     6038     6038     7564     7571     6038     7567
    16880       15       15       15        0     5957     6950     5970     5970     7284     7352     5970     7280
    16881       15       15       15        0     6025     6950     6024     6024     7703     7696     6024     7685
    16882       15       15       15        0     5955     6946     5956     5956     7260     7278     5956     7240
    16883       15       15       15        0     5950     6037     6949     6949     7177     7769     6949     7189
    16884       15       15       15        0     5951     6949     6947     6947     7206    11600     6947     7205
    16885       15       15       15        0     6019     6020     6947     6947     7617     7646     6947     7630
    16886       15       15       15        0     5951     6947     5952     5952     7205     7210     5952     7192
    16887       15       15       15        0     6016     6949     6038     6038     7579     7782     6038     7571
    16888       15       15       15        0     6025     6026     6950     6950     7699     7712     6950     7703
    16889       15       15       15        0     5969     5971     6026     6026     7338     7354     6026     7341
    16890       15       15       15        0     6022     6023     6946     6946     7664     7681     6946     7677
    16891       15       15       15        0     6021     6022     6948     6948     7648     7678     6948     7663
    16892       15       15       15        0     6037     6038     6949     6949     7765     7782     6949     7769
    16893       15       15       15        0     5956     6946     6950     6950     7278    11595     6950     7279
    16894       15       15       15        0     5953     6947     6948     6948     7220    11599     6948     7221
    16895       15       15       15        0     6016     6017     6949     6949     7570     7595     6949     7579
! ... 16 like lines cut
esel,s,type,,15
keyop,15,7,0                ! Use deformed area for application of load
esel,all
/com,*********** Define Pressure Using Surface Effect Elements "Pressure 2" ***********
et,16,154
eblock,10,,,35
(15i9)
    16911       16       16       16        0     6078     6547     6546     6546     8021    10024     6546     8020
    16912       16       16       16        0     6075     6549     6545     6545     7987    10022     6545     7986
    16913       16       16       16        0     6148     6548     6546     6546     8473    10025     6546     8472
    16914       16       16       16        0     6545     6549     6142     6142    10022     8388     6142     8387
    16915       16       16       16        0     6094     6548     6095     6095     8126     8138     6095     8116
    16916       16       16       16        0     6072     6161     6074     6074     7943     7954     6074     7940
    16917       16       16       16        0     6076     6547     6077     6077     7997     8006     6077     7988
    16918       16       16       16        0     6080     6546     6548     6548     8044    10025     6548     8045
    16919       16       16       16        0     6093     6095     6150     6150     8110     8128     6150     8113
    16920       16       16       16        0     6144     6547     6545     6545     8413    10021     6545     8412
    16921       16       16       16        0     6078     6546     6079     6079     8020     8032     6079     8010
    16922       16       16       16        0     6143     6144     6545     6545     8389     8412     6545     8402
    16923       16       16       16        0     6146     6546     6547     6547     8445    10024     6547     8446
    16924       16       16       16        0     6140     6141     6549     6549     8340     8374     6549     8353
    16925       16       16       16        0     6148     6149     6548     6548     8454     8488     6548     8473
    16926       16       16       16        0     6145     6146     6547     6547     8416     8446     6547     8423
    16927       16       16       16        0     6074     6549     6075     6075     7964     7987     6075     7953
    16928       16       16       16        0     6095     6548     6150     6150     8138     8498     6150     8128
    16929       16       16       16        0     6140     6549     6162     6162     8353     8565     6162     8341
    16930       16       16       16        0     6139     6140     6162     6162     8334     8341     6162     8337
! ... 16 like lines cut
esel,s,type,,16
keyop,16,7,0                ! Use deformed area for application of load
esel,all
esel,all
/com,*********** Define Rotational Velocity ***********
esel,none
esel,a,type,,1
cm,cm_rotvelcity69,elem
esel,all
/gst,on,on
fini
*get,_numnode,node,0,count
*get,_numelem,elem,0,count
*get, _MAXELEMNUM, elem, 0, NUM, MAX
*get, _MAXNODENUM, node, 0, NUM, MAX
*get, _MAXELEMTYPE, etyp, 0, NUM, MAX
*get, _MAXREALCONST, real, 0, NUM, MAX
/go
/wb,load,end               !  done creating loads
/com,--- Number of total nodes = %_numnode%
/com,--- Number of contact elements = 7558
/com,--- Number of spring elements = 0
/com,--- Number of bearing elements = 0
/com,--- Number of solid elements = 5575
/com,--- Number of condensed parts = 0
/com,--- Number of total elements = %_numelem%
*get,_wallbsol,active,,time,wall
/com,****************************************************************************
/com,*************************    SOLUTION       ********************************
/com,****************************************************************************
/solu
antype,0                   ! static analysis
_thickRatio=0.5     ! Ratio of thick parts in the model
eqsl,sparse,,,,,1
cntr,print,1               ! print out contact info and also make no initial contact an error
dmpoption,emat,no             ! Don't combine emat file for DANSYS
dmpoption,esav,no             ! Don't combine esav file for DANSYS
nldiag,cont,iter           ! print out contact info each equilibrium iteration
rescontrol,define,last,last,,dele	   ! Program Controlled
/com,****************************************************
/com,******************* SOLVE FOR LS 1 OF 1 ****************
esel,s,type,,15
nsle
sf,all,pres,10.495
esel,s,type,,16
nsle
sf,all,pres,10.495
nsel,all
esel,all
cmom,cm_rotvelcity69,0.,250.,0.,0.000000,0.000000,0.000000
esel,all
/nopr
/gopr
autots,on                  ! Workbench Program Controlled automatic time stepping
nsub,5,20,1                ! due to presence of high frictional contact
time,1.
outres,erase
outres,all,none
outres,nsol,all,
outres,rsol,all
outres,eangl,all
outres,etmp,all
outres,veng,all
outres,strs,all,
outres,epel,all,
outres,eppl,all,
outres,cont,all,
/nopr
esel,s,type,,14
cm,_elmisc,elem
esel,all
/gopr
outres,misc,all,_elmisc
! *********** WB SOLVE COMMAND ***********
! check interactive state
*get,ANSINTER_,active,,int
*if,ANSINTER_,ne,0,then
/eof
*endif
solve
/com *************** Write FE CONNECTORS ********* 
CEWRITE,file,ce,,INTE
/com,****************************************************
/com,*************** FINISHED SOLVE FOR LS 1 *************
*get,_wallasol,active,,time,wall
/nopr
*get,_numnode,node,0,count
*get,_numelem,elem,0,count
*get, _MAXELEMNUM, elem, 0, NUM, MAX
*get, _MAXNODENUM, node, 0, NUM, MAX,,,INTERNAL
*get, _MAXELEMTYPE, etyp, 0, NUM, MAX
*get, _MAXREALCONST, real, 0, NUM, MAX
/gopr
/post1
xmlo,ENCODING,ISO-8859-1
xmlo,parm
/xml,parm,xml
fini
/gopr
*get,_walldone,active,,time,wall
_preptime=(_wallbsol-_wallstrt)*3600
_solvtime=(_wallasol-_wallbsol)*3600
_posttime=(_walldone-_wallasol)*3600
_totaltim=(_walldone-_wallstrt)*3600
*get,_dlbratio,active,0,solu,dlbr
*get,_combtime,active,0,solu,comb
*get,_ssmode,active,0,solu,ssmm
*get,_ndofs,active,0,solu,ndof
/com,--- Total number of nodes = %_numnode%
/com,--- Total number of elements = %_numelem%
/com,--- Element load balance ratio = %_dlbratio%
/com,--- Time to combine distributed files = %_combtime%
/com,--- Sparse memory mode = %_ssmode%
/com,--- Number of DOF = %_ndofs%
/wb,file,end               ! done with WB generated input
