/batch
/config,noeldb,1     ! force off writing results to database
*get,_wallstrt,active,,time,wall
! ANSYS input file written by Workbench version 2021 R2
! File used for geometry attach: C:\Users\CJ\PycharmProjects\DesignOptimization2021Fall\Project\tutorial_ansys\brake.agdb
/title,Project 2--Static Structural (B5)
! ****** Begin Custom Load Command Snippet ******
/COM, ACT Extensions:
/COM,     LSDYNA, 2021.1
/COM,     5f463412-bd3e-484b-87e7-cbc0a665e474, wbex
/COM,
! ****** End   Custom Load Command Snippet ******
*DIM,_wb_ProjectScratch_dir,string,248
_wb_ProjectScratch_dir(1) = 'C:\Users\CJ\PycharmProjects\DesignOptimization2021Fall\Project\Project 2 Ansys\_ProjectScratch\ScrDF50\'
*DIM,_wb_SolverFiles_dir,string,248
_wb_SolverFiles_dir(1) = 'C:\Users\CJ\PycharmProjects\DesignOptimization2021Fall\Project\Project 2 Ansys\Project 2_files\dp0\SYS\MECH\'
*DIM,_wb_userfiles_dir,string,248
_wb_userfiles_dir(1) = 'C:\Users\CJ\PycharmProjects\DesignOptimization2021Fall\Project\Project 2 Ansys\Project 2_files\user_files\'
/com,--- Data in consistent NMM units. See Solving Units in the help system for more information.
/units,MPA
/nopr
/wb,file,start              !  signify a WB generated input file
/prep7
! Turn off shape checking because checks already performed inside WB mesher.
! See help system for more information.
SHPP,OFF,,NOWARN
/nolist
etcon,set             ! allow ANSYS to choose best KEYOP's for 180x elements, resets any applicable keyopt to MAPDL defaults
/com,*********** Nodes for the whole assembly ***********
nblock,3,,7043
(1i9,3e20.9e3)
        1    -8.572527594E-15     4.000000000E+01     7.000000000E+01
        2    -1.740829210E+01     4.000000000E+01     6.780082128E+01
        3    -3.372275719E+01     4.000000000E+01     6.134146760E+01
        4    -4.791829742E+01     4.000000000E+01     5.102780392E+01
        5    -5.910295479E+01     4.000000000E+01     3.750787565E+01
        6    -6.657395614E+01     4.000000000E+01     2.163118961E+01
        7    -6.986187099E+01     4.000000000E+01     4.395336367E+00
        8    -6.876010755E+01     4.000000000E+01    -1.311669202E+01
        9    -6.333789367E+01     4.000000000E+01    -2.980455041E+01
       10    -5.393592699E+01     4.000000000E+01    -4.461967928E+01
       11    -4.114496766E+01     4.000000000E+01    -5.663118961E+01
       12    -2.576871869E+01     4.000000000E+01    -6.508435401E+01
       13    -8.773326350E+00     4.000000000E+01    -6.944802909E+01
       14     8.773326350E+00     4.000000000E+01    -6.944802909E+01
       15     2.576871869E+01     4.000000000E+01    -6.508435401E+01
       16     4.114496766E+01     4.000000000E+01    -5.663118961E+01
       17     5.393592699E+01     4.000000000E+01    -4.461967928E+01
       18     6.333789367E+01     4.000000000E+01    -2.980455041E+01
       19     6.876010755E+01     4.000000000E+01    -1.311669202E+01
       20     6.986187099E+01     4.000000000E+01     4.395336367E+00
! ... 6384 like lines cut
/com,*********** Nodes for all Remote Points ***********
nblock,3
(1i9,3e20.9e3)
     6404     0.000000000E+00    -2.749999985E+01     1.292034336E-17
     6405     0.000000000E+00    -2.749999985E+01     1.292034336E-17
-1
/wb,elem,start            !  set before creation of elements
/com,*********** Elements for Body 1 "Solid" ***********
et,1,187
eblock,19,solid,,3026
(19i9)
        1        1        1        1        0        0        0        0       10        0        1      213     1006      673      389     2598     4942     2595     2591
     3809     3806
        1        1        1        1        0        0        0        0       10        0        2      213      625     1006      980     2593     4786     2598     2597
     4785     5909
        1        1        1        1        0        0        0        0       10        0        3      213      625      673     1006     2593     4784     2595     2598
     4786     4942
        1        1        1        1        0        0        0        0       10        0        4      181      389     1006      908     2363     3809     2369     2368
     3808     5753
        1        1        1        1        0        0        0        0       10        0        5      181      389      673     1006     2363     3806     2366     2369
     3809     4942
        1        1        1        1        0        0        0        0       10        0        6      388      625     1006      673     3800     4786     3803     3802
     4784     4942
        1        1        1        1        0        0        0        0       10        0        7      180     1006      672      905     2362     4941     2357     2360
     5739     4938
        1        1        1        1        0        0        0        0       10        0        8      180      388      672     1006     2354     3801     2357     2362
     3803     4941
        1        1        1        1        0        0        0        0       10        0        9      212     1006      388      625     2590     3803     2585     2588
     4786     3800
        1        1        1        1        0        0        0        0       10        0       10      388      673     1006      561     3802     4942     3803     3799
     4527     4529
! ... 6033 like lines cut
!Material Id = {53D035FE-1FAF-47DF-88C7-91DA346BBD0F}
/com,*********** Elements for Body 2 "Solid" ***********
et,2,187
eblock,19,solid,,89
(19i9)
        2        2        2        2        0        0        0        0       10        0     3027     5936     5957     5943     5944     6114     6153     6111     6112
     6156     6152
        2        2        2        2        0        0        0        0       10        0     3028     5936     5944     5955     5957     6112     6155     6113     6114
     6156     6190
        2        2        2        2        0        0        0        0       10        0     3029     5944     6019     5955     5957     6157     6192     6155     6156
     6195     6190
        2        2        2        2        0        0        0        0       10        0     3030     5936     5937     5955     5944     6110     6119     6113     6112
     6116     6155
        2        2        2        2        0        0        0        0       10        0     3031     5955     5957     6019     5956     6190     6195     6192     6189
     6193     6194
        2        2        2        2        0        0        0        0       10        0     3032     5937     5945     6019     5944     6117     6159     6121     6116
     6154     6157
        2        2        2        2        0        0        0        0       10        0     3033     5915     5923     6015     5917     6023     6066     6026     6021
     6035     6039
        2        2        2        2        0        0        0        0       10        0     3034     5915     5923     5921     5956     6023     6059     6022     6025
     6065     6060
        2        2        2        2        0        0        0        0       10        0     3035     5946     6019     6017     6015     6164     6403     6163     6162
     6399     6398
        2        2        2        2        0        0        0        0       10        0     3036     5937     6015     5946     5938     6120     6162     6118     6115
     6126     6123
! ... 159 like lines cut
!Material Id = {D32244CD-CFC6-417D-93F7-A411BB2FD2CE}
/com,*********** Elements for Body 3 "Solid" ***********
et,3,187
eblock,19,solid,,88
(19i9)
        3        3        2        3        0        0        0        0       10        0     3116     5995     6007     6009     6005     6358     6386     6359     6357
     6381     6382
        3        3        2        3        0        0        0        0       10        0     3117     5995     6003     6007     6005     6356     6378     6358     6357
     6377     6381
        3        3        2        3        0        0        0        0       10        0     3118     5972     6009     6007     6005     6262     6386     6261     6260
     6382     6381
        3        3        2        3        0        0        0        0       10        0     3119     5972     6007     6003     6005     6261     6378     6259     6260
     6381     6377
        3        3        2        3        0        0        0        0       10        0     3120     5984     5995     6005     6003     6318     6357     6320     6319
     6356     6377
        3        3        2        3        0        0        0        0       10        0     3121     5994     6007     5995     6003     6354     6358     6352     6353
     6378     6356
        3        3        2        3        0        0        0        0       10        0     3122     5985     6009     5996     5997     6325     6361     6322     6323
     6362     6360
        3        3        2        3        0        0        0        0       10        0     3123     5984     6005     5995     5985     6320     6357     6318     6316
     6324     6321
        3        3        2        3        0        0        0        0       10        0     3124     5963     5972     6003     6005     6231     6259     6233     6234
     6260     6377
        3        3        2        3        0        0        0        0       10        0     3125     5971     5972     6007     6003     6255     6261     6257     6256
     6259     6378
! ... 157 like lines cut
!Material Id = {5B354B16-160F-446C-A262-007170286292}
/wb,elem,end               !  done creating elements
/com,*********** Send User Defined Coordinate System(s) ***********
local,12,0,0.,-27.4999998509884,1.29203433560791e-017,-180.,-90.,-180.
csys,0
toffst,273.15,  ! Temperature offset from absolute zero
/com,*********** Set Reference Temperature ***********
tref,22.
/wb,mat,start              !  starting to send materials
/com,*********** Send Materials ***********
Temperature = 'TEMP' ! Temperature
MP,DENS,1,7.2e-09,	! tonne mm^-3
MP,ALPX,1,1.1e-05,	! C^-1
MP,C,1,447000000,	! mm^2 s^-2 C^-1
MP,KXX,1,52,	! tonne mm s^-3 C^-1
MP,RSVX,1,9.6e-05,	! ohm mm
MP,EX,1,110000,	! tonne s^-2 mm^-1
MP,NUXY,1,0.28,
MP,MURX,1,10000,
MP,UVID,1,1e55ba3b-6eb7-440d-beac-2885ad80fc79
MP,UMID,1,f60bcced-8a07-4217-aedb-972d67ace671

Temperature = 'TEMP' ! Temperature
MP,DENS,2,7.85e-09,	! tonne mm^-3
MP,ALPX,2,1.2e-05,	! C^-1
MP,C,2,434000000,	! mm^2 s^-2 C^-1
MP,KXX,2,60.5,	! tonne mm s^-3 C^-1
MP,RSVX,2,0.00017,	! ohm mm
MP,EX,2,200000,	! tonne s^-2 mm^-1
MP,NUXY,2,0.3,
MP,MURX,2,10000,
MP,UVID,2,e010d15e-155b-4fae-ae6b-8d6bb5e3ee05
MP,UMID,2,59002a79-71c2-428e-906b-55d7dbee100e

Temperature = 'TEMP' ! Temperature
MP,DENS,3,7.85e-09,	! tonne mm^-3
MP,ALPX,3,1.2e-05,	! C^-1
MP,C,3,434000000,	! mm^2 s^-2 C^-1
MP,KXX,3,60.5,	! tonne mm s^-3 C^-1
MP,RSVX,3,0.00017,	! ohm mm
MP,EX,3,200000,	! tonne s^-2 mm^-1
MP,NUXY,3,0.3,
MP,MURX,3,10000,
MP,UVID,3,e010d15e-155b-4fae-ae6b-8d6bb5e3ee05
MP,UMID,3,59002a79-71c2-428e-906b-55d7dbee100e

/wb,mat,end                !  done sending materials
!************************* Model Summary ********************
!Solid,	Gray Cast Iron,	matid,	1
!Solid,	Structural Steel,	matid,	2
!Solid,	Structural Steel,	matid,	3
!************************* End Model Summary ********************
! get the diagonal of the bounding box. Needed later for other things
*get,_xmin,node,,mnloc,x
*get,_ymin,node,,mnloc,y
*get,_zmin,node,,mnloc,z
*get,_xmax,node,,mxloc,x
*get,_ymax,node,,mxloc,y
*get,_zmax,node,,mxloc,z
_ASMDIAG=(_xmax-_xmin)*(_xmax-_xmin)+(_ymax-_ymin)*(_ymax-_ymin)+(_zmax-_zmin)*(_zmax-_zmin)
_ASMDIAG=SQRT(_ASMDIAG)
/wb,contact,start          !  starting to send contact
/com,*********** Create Contact "Contact Region" ***********
/com,            Real Constant Set For Above Contact Is 5 & 4 
*set,tid,5
*set,cid,4
r,tid
r,cid
et,tid,170
et,cid,174
eblock,10,,,84
(15i9)
     7323        5        5        5        0      112      126      113      113     1849     1860      113     1848
     7324        5        5        5        0      112      157      126      126     1850     1994      126     1849
     7325        5        5        5        0      115      128      116      116     1880     1892      116     1879
     7326        5        5        5        0      114      130      115      115     1870     1882      115     1869
     7327        5        5        5        0      115      130      129      129     1882     2011      129     1881
     7328        5        5        5        0      113      126      131      131     1860     1993      131     1861
     7329        5        5        5        0      113      131      114      114     1861     1871      114     1859
     7330        5        5        5        0      115      129      128      128     1881     2004      128     1880
     7331        5        5        5        0      114      131      130      130     1871     2017      130     1870
     7332        5        5        5        0      116      127      117      117     1891     1904      117     1890
     7333        5        5        5        0      117      127      125      125     1904     1986      125     1903
     7334        5        5        5        0      116      128      127      127     1892     1999      127     1891
     7335        5        5        5        0      117      125      118      118     1903     1913      118     1902
     7336        5        5        5        0      118      125      132      132     1913     1987      132     1914
     7337        5        5        5        0      130      131      815      815     2017     2025      815     2018
     7338        5        5        5        0      196      254      815      815     2467     2909      815     2470
     7339        5        5        5        0      129      816      817      817     2012     5274      817     2013
     7340        5        5        5        0      129      130      816      816     2011     2019      816     2012
     7341        5        5        5        0      570      816      815      815     4561     5269      815     4560
     7342        5        5        5        0      249      814      573      573     2875     4575      573     2872
! ... 65 like lines cut
eblock,10,,,84
(15i9)
     7407        4        4        4        0      112      126      113      113     1849     1860      113     1848
     7408        4        4        4        0      112      157      126      126     1850     1994      126     1849
     7409        4        4        4        0      115      128      116      116     1880     1892      116     1879
     7410        4        4        4        0      114      130      115      115     1870     1882      115     1869
     7411        4        4        4        0      115      130      129      129     1882     2011      129     1881
     7412        4        4        4        0      113      126      131      131     1860     1993      131     1861
     7413        4        4        4        0      113      131      114      114     1861     1871      114     1859
     7414        4        4        4        0      115      129      128      128     1881     2004      128     1880
     7415        4        4        4        0      114      131      130      130     1871     2017      130     1870
     7416        4        4        4        0      116      127      117      117     1891     1904      117     1890
     7417        4        4        4        0      117      127      125      125     1904     1986      125     1903
     7418        4        4        4        0      116      128      127      127     1892     1999      127     1891
     7419        4        4        4        0      117      125      118      118     1903     1913      118     1902
     7420        4        4        4        0      118      125      132      132     1913     1987      132     1914
     7421        4        4        4        0      130      131      815      815     2017     2025      815     2018
     7422        4        4        4        0      196      254      815      815     2467     2909      815     2470
     7423        4        4        4        0      129      816      817      817     2012     5274      817     2013
     7424        4        4        4        0      129      130      816      816     2011     2019      816     2012
     7425        4        4        4        0      570      816      815      815     4561     5269      815     4560
     7426        4        4        4        0      249      814      573      573     2875     4575      573     2872
! ... 65 like lines cut
eblock,10,,,24
(15i9)
     7491        4        5        4        0     5938     6013     5939     5939     6125     6132     5939     6122
     7492        4        5        4        0     5919     6012     6011     6011     6051     6387     6011     6050
     7493        4        5        4        0     5940     6012     5941     5941     6139     6144     5941     6134
     7494        4        5        4        0     5940     6011     6012     6012     6138     6387     6012     6139
     7495        4        5        4        0     5917     5918     6013     6013     6034     6045     6013     6038
     7496        4        5        4        0     5939     6011     5940     5940     6131     6138     5940     6127
     7497        4        5        4        0     5936     5955     5937     5937     6113     6119     5937     6110
     7498        4        5        4        0     5931     5942     5932     5932     6096     6100     5932     6093
     7499        4        5        4        0     5918     5919     6011     6011     6040     6050     6011     6044
     7500        4        5        4        0     5918     6011     6013     6013     6044     6388     6013     6045
     7501        4        5        4        0     5919     5920     6012     6012     6047     6055     6012     6051
     7502        4        5        4        0     5939     6013     6011     6011     6132     6388     6011     6131
     7503        4        5        4        0     5932     5942     6014     6014     6100     6150     6014     6102
     7504        4        5        4        0     5920     6014     6012     6012     6056     6391     6012     6055
     7505        4        5        4        0     5941     6014     5942     5942     6145     6150     5942     6141
     7506        4        5        4        0     5941     6012     6014     6014     6144     6391     6014     6145
     7507        4        5        4        0     5916     6014     5920     5920     6032     6056     5920     6027
     7508        4        5        4        0     5916     5932     6014     6014     6030     6102     6014     6032
     7509        4        5        4        0     5937     5955     6015     6015     6119     6191     6015     6120
     7510        4        5        4        0     5917     6013     6015     6015     6038     6394     6015     6039
! ... 5 like lines cut
eblock,10,,,24
(15i9)
     7515        5        4        5        0     5938     6013     5939     5939     6125     6132     5939     6122
     7516        5        4        5        0     5919     6012     6011     6011     6051     6387     6011     6050
     7517        5        4        5        0     5940     6012     5941     5941     6139     6144     5941     6134
     7518        5        4        5        0     5940     6011     6012     6012     6138     6387     6012     6139
     7519        5        4        5        0     5917     5918     6013     6013     6034     6045     6013     6038
     7520        5        4        5        0     5939     6011     5940     5940     6131     6138     5940     6127
     7521        5        4        5        0     5936     5955     5937     5937     6113     6119     5937     6110
     7522        5        4        5        0     5931     5942     5932     5932     6096     6100     5932     6093
     7523        5        4        5        0     5918     5919     6011     6011     6040     6050     6011     6044
     7524        5        4        5        0     5918     6011     6013     6013     6044     6388     6013     6045
     7525        5        4        5        0     5919     5920     6012     6012     6047     6055     6012     6051
     7526        5        4        5        0     5939     6013     6011     6011     6132     6388     6011     6131
     7527        5        4        5        0     5932     5942     6014     6014     6100     6150     6014     6102
     7528        5        4        5        0     5920     6014     6012     6012     6056     6391     6012     6055
     7529        5        4        5        0     5941     6014     5942     5942     6145     6150     5942     6141
     7530        5        4        5        0     5941     6012     6014     6014     6144     6391     6014     6145
     7531        5        4        5        0     5916     6014     5920     5920     6032     6056     5920     6027
     7532        5        4        5        0     5916     5932     6014     6014     6030     6102     6014     6032
     7533        5        4        5        0     5937     5955     6015     6015     6119     6191     6015     6120
     7534        5        4        5        0     5917     6013     6015     6015     6038     6394     6015     6039
! ... 5 like lines cut
keyo,cid,8,2               ! auto create asymmetric contact (from Program Controlled setting)
keyo,cid,10,0              ! adjust contact stiffness each NR iteration (from Program Controlled setting)
keyo,cid,12,5              ! bonded always
keyo,cid,18,1              ! small sliding turned on by application
keyo,cid,2,0               ! augmented Lagrange (from Program Controlled setting)
keyo,cid,4,0               ! on Gauss point (from Program Controlled setting)
keyo,cid,9,1               ! ignore initial gaps/penetration
keyo,cid,7,0               ! No Prediction
rmod,tid,3,1.       ! FKN
rmod,tid,5,0.       ! ICONT
rmod,tid,6,0.       ! PINB
rmod,tid,10,0.      ! CNOF
rmod,tid,12,0.      ! FKT
rmod,tid,36,30      ! WB DSID
rmod,cid,3,1.       ! FKN
rmod,cid,5,0.       ! ICONT
rmod,cid,6,0.       ! PINB
rmod,cid,10,0.      ! CNOF
rmod,cid,12,0.      ! FKT
rmod,cid,36,30      ! WB DSID
/com,*********** Create Contact "Contact Region 2" ***********
/com,            Real Constant Set For Above Contact Is 7 & 6 
*set,tid,7
*set,cid,6
r,tid
r,cid
et,tid,170
et,cid,174
eblock,10,,,83
(15i9)
     7539        7        7        7        0       18       19       26       26     1121     1130       26     1122
     7540        7        7        7        0       19       58       26       26     1131     1176       26     1130
     7541        7        7        7        0       18       26       28       28     1122     1175       28     1123
     7542        7        7        7        0       17       29       30       30     1115     1193       30     1116
     7543        7        7        7        0       16       30       31       31     1108     1202       31     1109
     7544        7        7        7        0       17       18       29       29     1114     1124       29     1115
     7545        7        7        7        0       16       17       30       30     1107     1116       30     1108
     7546        7        7        7        0       14       27       33       33     1095     1183       33     1096
     7547        7        7        7        0       15       16       32       32     1101     1110       32     1103
     7548        7        7        7        0       14       15       27       27     1094     1102       27     1095
     7549        7        7        7        0       15       32       27       27     1103     1182       27     1102
     7550        7        7        7        0       16       31       32       32     1109     1208       32     1110
     7551        7        7        7        0       18       28       29       29     1123     1188       29     1124
     7552        7        7        7        0      203      615      229      229     2520     2717      229     2517
     7553        7        7        7        0       59      640      582      582     1422     4609      582     1420
     7554        7        7        7        0       59      616      228      228     1421     2707      228     1418
     7555        7        7        7        0       59      228      640      640     1418     2708      640     1422
     7556        7        7        7        0      228      616      641      641     2707     4759      641     2709
     7557        7        7        7        0      203      641      616      616     2522     4759      616     2521
     7558        7        7        7        0      202      230      642      642     2511     2725      642     2514
! ... 64 like lines cut
eblock,10,,,83
(15i9)
     7622        6        6        6        0       18       19       26       26     1121     1130       26     1122
     7623        6        6        6        0       19       58       26       26     1131     1176       26     1130
     7624        6        6        6        0       18       26       28       28     1122     1175       28     1123
     7625        6        6        6        0       17       29       30       30     1115     1193       30     1116
     7626        6        6        6        0       16       30       31       31     1108     1202       31     1109
     7627        6        6        6        0       17       18       29       29     1114     1124       29     1115
     7628        6        6        6        0       16       17       30       30     1107     1116       30     1108
     7629        6        6        6        0       14       27       33       33     1095     1183       33     1096
     7630        6        6        6        0       15       16       32       32     1101     1110       32     1103
     7631        6        6        6        0       14       15       27       27     1094     1102       27     1095
     7632        6        6        6        0       15       32       27       27     1103     1182       27     1102
     7633        6        6        6        0       16       31       32       32     1109     1208       32     1110
     7634        6        6        6        0       18       28       29       29     1123     1188       29     1124
     7635        6        6        6        0      203      615      229      229     2520     2717      229     2517
     7636        6        6        6        0       59      640      582      582     1422     4609      582     1420
     7637        6        6        6        0       59      616      228      228     1421     2707      228     1418
     7638        6        6        6        0       59      228      640      640     1418     2708      640     1422
     7639        6        6        6        0      228      616      641      641     2707     4759      641     2709
     7640        6        6        6        0      203      641      616      616     2522     4759      616     2521
     7641        6        6        6        0      202      230      642      642     2511     2725      642     2514
! ... 64 like lines cut
eblock,10,,,24
(15i9)
     7705        6        7        6        0     5982     6001     5983     5983     6306     6313     5983     6302
     7706        6        7        6        0     5960     5961     6002     6002     6209     6222     6002     6213
     7707        6        7        6        0     5961     6001     6002     6002     6221     6370     6002     6222
     7708        6        7        6        0     5982     6002     6001     6001     6307     6370     6001     6306
     7709        6        7        6        0     5962     6003     6001     6001     6228     6371     6001     6227
     7710        6        7        6        0     5962     5963     6003     6003     6224     6233     6003     6228
     7711        6        7        6        0     5981     6002     5982     5982     6299     6307     5982     6296
     7712        6        7        6        0     5961     5962     6001     6001     6217     6227     6001     6221
     7713        6        7        6        0     5974     5985     5975     5975     6270     6274     5975     6267
     7714        6        7        6        0     5979     5998     5980     5980     6287     6293     5980     6284
     7715        6        7        6        0     5983     6003     5984     5984     6314     6319     5984     6309
     7716        6        7        6        0     5983     6001     6003     6003     6313     6371     6003     6314
     7717        6        7        6        0     5980     5998     6004     6004     6293     6365     6004     6294
     7718        6        7        6        0     5960     6002     6004     6004     6213     6374     6004     6214
     7719        6        7        6        0     5980     6004     5981     5981     6294     6300     5981     6289
     7720        6        7        6        0     5981     6004     6002     6002     6300     6374     6002     6299
     7721        6        7        6        0     5958     6004     5998     5998     6201     6365     5998     6199
     7722        6        7        6        0     5958     5960     6004     6004     6196     6214     6004     6201
     7723        6        7        6        0     5975     5985     6005     6005     6274     6324     6005     6276
     7724        6        7        6        0     5963     6005     6003     6003     6234     6377     6003     6233
! ... 5 like lines cut
eblock,10,,,24
(15i9)
     7729        7        6        7        0     5982     6001     5983     5983     6306     6313     5983     6302
     7730        7        6        7        0     5960     5961     6002     6002     6209     6222     6002     6213
     7731        7        6        7        0     5961     6001     6002     6002     6221     6370     6002     6222
     7732        7        6        7        0     5982     6002     6001     6001     6307     6370     6001     6306
     7733        7        6        7        0     5962     6003     6001     6001     6228     6371     6001     6227
     7734        7        6        7        0     5962     5963     6003     6003     6224     6233     6003     6228
     7735        7        6        7        0     5981     6002     5982     5982     6299     6307     5982     6296
     7736        7        6        7        0     5961     5962     6001     6001     6217     6227     6001     6221
     7737        7        6        7        0     5974     5985     5975     5975     6270     6274     5975     6267
     7738        7        6        7        0     5979     5998     5980     5980     6287     6293     5980     6284
     7739        7        6        7        0     5983     6003     5984     5984     6314     6319     5984     6309
     7740        7        6        7        0     5983     6001     6003     6003     6313     6371     6003     6314
     7741        7        6        7        0     5980     5998     6004     6004     6293     6365     6004     6294
     7742        7        6        7        0     5960     6002     6004     6004     6213     6374     6004     6214
     7743        7        6        7        0     5980     6004     5981     5981     6294     6300     5981     6289
     7744        7        6        7        0     5981     6004     6002     6002     6300     6374     6002     6299
     7745        7        6        7        0     5958     6004     5998     5998     6201     6365     5998     6199
     7746        7        6        7        0     5958     5960     6004     6004     6196     6214     6004     6201
     7747        7        6        7        0     5975     5985     6005     6005     6274     6324     6005     6276
     7748        7        6        7        0     5963     6005     6003     6003     6234     6377     6003     6233
! ... 5 like lines cut
keyo,cid,8,2               ! auto create asymmetric contact (from Program Controlled setting)
keyo,cid,10,0              ! adjust contact stiffness each NR iteration (from Program Controlled setting)
keyo,cid,12,5              ! bonded always
keyo,cid,18,1              ! small sliding turned on by application
keyo,cid,2,0               ! augmented Lagrange (from Program Controlled setting)
keyo,cid,4,0               ! on Gauss point (from Program Controlled setting)
keyo,cid,9,1               ! ignore initial gaps/penetration
keyo,cid,7,0               ! No Prediction
rmod,tid,3,1.       ! FKN
rmod,tid,5,0.       ! ICONT
rmod,tid,6,0.       ! PINB
rmod,tid,10,0.      ! CNOF
rmod,tid,12,0.      ! FKT
rmod,tid,36,33      ! WB DSID
rmod,cid,3,1.       ! FKN
rmod,cid,5,0.       ! ICONT
rmod,cid,6,0.       ! PINB
rmod,cid,10,0.      ! CNOF
rmod,cid,12,0.      ! FKT
rmod,cid,36,33      ! WB DSID
/com,*********** Create Contact "Frictional - Solid To Solid" ***********
/com,            Real Constant Set For Above Contact Is 9 & 8 
*set,tid,9
*set,cid,8
r,tid
r,cid
et,tid,170
et,cid,174
eblock,10,,,36
(15i9)
     7753        9        9        9        0      130      131      815      815     2017     2025      815     2018
     7754        9        9        9        0      196      254      815      815     2467     2909      815     2470
     7755        9        9        9        0      129      816      817      817     2012     5274      817     2013
     7756        9        9        9        0      129      130      816      816     2011     2019      816     2012
     7757        9        9        9        0      570      816      815      815     4561     5269      815     4560
     7758        9        9        9        0      249      814      573      573     2875     4575      573     2872
     7759        9        9        9        0      250      573      814      814     2879     4575      814     2881
     7760        9        9        9        0      254      663      815      815     2906     4921      815     2909
     7761        9        9        9        0      253      815      663      663     2902     4921      663     2900
     7762        9        9        9        0      254      612      664      664     2905     4742      664     2907
     7763        9        9        9        0      127      128      814      814     1999     2005      814     2000
     7764        9        9        9        0      126      196      131      131     1995     2023      131     1993
     7765        9        9        9        0      131      196      815      815     2023     2470      815     2025
     7766        9        9        9        0      158      597      661      661     2198     4676      661     2200
     7767        9        9        9        0      252      816      570      570     2896     4561      570     2893
     7768        9        9        9        0      250      814      817      817     2881     5264      817     2882
     7769        9        9        9        0      196      612      254      254     2469     2905      254     2467
     7770        9        9        9        0      249      662      814      814     2873     4915      814     2875
     7771        9        9        9        0      252      571      816      816     2894     4568      816     2896
     7772        9        9        9        0      253      570      815      815     2899     4560      815     2902
! ... 17 like lines cut
eblock,10,,,36
(15i9)
     7789        8        8        8        0      130      131      815      815     2017     2025      815     2018
     7790        8        8        8        0      196      254      815      815     2467     2909      815     2470
     7791        8        8        8        0      129      816      817      817     2012     5274      817     2013
     7792        8        8        8        0      129      130      816      816     2011     2019      816     2012
     7793        8        8        8        0      570      816      815      815     4561     5269      815     4560
     7794        8        8        8        0      249      814      573      573     2875     4575      573     2872
     7795        8        8        8        0      250      573      814      814     2879     4575      814     2881
     7796        8        8        8        0      254      663      815      815     2906     4921      815     2909
     7797        8        8        8        0      253      815      663      663     2902     4921      663     2900
     7798        8        8        8        0      254      612      664      664     2905     4742      664     2907
     7799        8        8        8        0      127      128      814      814     1999     2005      814     2000
     7800        8        8        8        0      126      196      131      131     1995     2023      131     1993
     7801        8        8        8        0      131      196      815      815     2023     2470      815     2025
     7802        8        8        8        0      158      597      661      661     2198     4676      661     2200
     7803        8        8        8        0      252      816      570      570     2896     4561      570     2893
     7804        8        8        8        0      250      814      817      817     2881     5264      817     2882
     7805        8        8        8        0      196      612      254      254     2469     2905      254     2467
     7806        8        8        8        0      249      662      814      814     2873     4915      814     2875
     7807        8        8        8        0      252      571      816      816     2894     4568      816     2896
     7808        8        8        8        0      253      570      815      815     2899     4560      815     2902
! ... 17 like lines cut
eblock,10,,,24
(15i9)
     7825        8        9        8        0     5938     6013     5939     5939     6125     6132     5939     6122
     7826        8        9        8        0     5919     6012     6011     6011     6051     6387     6011     6050
     7827        8        9        8        0     5940     6012     5941     5941     6139     6144     5941     6134
     7828        8        9        8        0     5940     6011     6012     6012     6138     6387     6012     6139
     7829        8        9        8        0     5917     5918     6013     6013     6034     6045     6013     6038
     7830        8        9        8        0     5939     6011     5940     5940     6131     6138     5940     6127
     7831        8        9        8        0     5936     5955     5937     5937     6113     6119     5937     6110
     7832        8        9        8        0     5931     5942     5932     5932     6096     6100     5932     6093
     7833        8        9        8        0     5918     5919     6011     6011     6040     6050     6011     6044
     7834        8        9        8        0     5918     6011     6013     6013     6044     6388     6013     6045
     7835        8        9        8        0     5919     5920     6012     6012     6047     6055     6012     6051
     7836        8        9        8        0     5939     6013     6011     6011     6132     6388     6011     6131
     7837        8        9        8        0     5932     5942     6014     6014     6100     6150     6014     6102
     7838        8        9        8        0     5920     6014     6012     6012     6056     6391     6012     6055
     7839        8        9        8        0     5941     6014     5942     5942     6145     6150     5942     6141
     7840        8        9        8        0     5941     6012     6014     6014     6144     6391     6014     6145
     7841        8        9        8        0     5916     6014     5920     5920     6032     6056     5920     6027
     7842        8        9        8        0     5916     5932     6014     6014     6030     6102     6014     6032
     7843        8        9        8        0     5937     5955     6015     6015     6119     6191     6015     6120
     7844        8        9        8        0     5917     6013     6015     6015     6038     6394     6015     6039
! ... 5 like lines cut
eblock,10,,,24
(15i9)
     7849        9        8        9        0     5938     6013     5939     5939     6125     6132     5939     6122
     7850        9        8        9        0     5919     6012     6011     6011     6051     6387     6011     6050
     7851        9        8        9        0     5940     6012     5941     5941     6139     6144     5941     6134
     7852        9        8        9        0     5940     6011     6012     6012     6138     6387     6012     6139
     7853        9        8        9        0     5917     5918     6013     6013     6034     6045     6013     6038
     7854        9        8        9        0     5939     6011     5940     5940     6131     6138     5940     6127
     7855        9        8        9        0     5936     5955     5937     5937     6113     6119     5937     6110
     7856        9        8        9        0     5931     5942     5932     5932     6096     6100     5932     6093
     7857        9        8        9        0     5918     5919     6011     6011     6040     6050     6011     6044
     7858        9        8        9        0     5918     6011     6013     6013     6044     6388     6013     6045
     7859        9        8        9        0     5919     5920     6012     6012     6047     6055     6012     6051
     7860        9        8        9        0     5939     6013     6011     6011     6132     6388     6011     6131
     7861        9        8        9        0     5932     5942     6014     6014     6100     6150     6014     6102
     7862        9        8        9        0     5920     6014     6012     6012     6056     6391     6012     6055
     7863        9        8        9        0     5941     6014     5942     5942     6145     6150     5942     6141
     7864        9        8        9        0     5941     6012     6014     6014     6144     6391     6014     6145
     7865        9        8        9        0     5916     6014     5920     5920     6032     6056     5920     6027
     7866        9        8        9        0     5916     5932     6014     6014     6030     6102     6014     6032
     7867        9        8        9        0     5937     5955     6015     6015     6119     6191     6015     6120
     7868        9        8        9        0     5917     6013     6015     6015     6038     6394     6015     6039
! ... 5 like lines cut
keyo,cid,8,2               ! auto create asymmetric contact (from Program Controlled setting)
keyo,cid,10,0              ! adjust contact stiffness each NR iteration (from Program Controlled setting)
keyo,cid,12,0              ! standard contact
mp,mu,cid,0.22      ! unitless
keyo,cid,18,1              ! small sliding turned on by application
keyo,cid,2,0               ! augmented Lagrange (from Program Controlled setting)
keyo,cid,4,0               ! on Gauss point (from Program Controlled setting)
keyo,cid,9,0               ! use real geometry with stepped effects
keyo,cid,7,0               ! No Prediction
rmod,tid,3,1.       ! FKN
rmod,tid,5,0.       ! ICONT
rmod,tid,6,0.       ! PINB
rmod,tid,10,0.      ! CNOF
rmod,tid,12,0.      ! FKT
rmod,tid,36,58      ! WB DSID
rmod,cid,3,1.       ! FKN
rmod,cid,5,0.       ! ICONT
rmod,cid,6,0.       ! PINB
rmod,cid,10,0.      ! CNOF
rmod,cid,12,0.      ! FKT
rmod,cid,36,58      ! WB DSID
/com,*********** Create Contact "Frictional - Solid To Solid" ***********
/com,            Real Constant Set For Above Contact Is 11 & 10 
*set,tid,11
*set,cid,10
r,tid
r,cid
et,tid,170
et,cid,174
eblock,10,,,36
(15i9)
     7873       11       11       11        0      199      812      809      809     2495     5239      809     2494
     7874       11       11       11        0       31      810       32       32     1211     1220       32     1208
     7875       11       11       11        0       60      203      581      581     1427     2519      581     1428
     7876       11       11       11        0       28      809       29       29     1189     1195       29     1188
     7877       11       11       11        0      202      615      810      810     2513     4757      810     2515
     7878       11       11       11        0      199      809      536      536     2494     4424      536     2491
     7879       11       11       11        0       30      812      811      811     1204     5251      811     1203
     7880       11       11       11        0      203      810      615      615     2524     4757      615     2520
     7881       11       11       11        0      200      812      537      537     2502     4427      537     2499
     7882       11       11       11        0       31      811      810      810     1212     5244      810     1211
     7883       11       11       11        0       32      810       60       60     1220     1430       60     1217
     7884       11       11       11        0      201      811      538      538     2509     4430      538     2506
     7885       11       11       11        0      201      539      811      811     2507     4436      811     2509
     7886       11       11       11        0       60      810      203      203     1430     2524      203     1427
     7887       11       11       11        0      202      810      539      539     2515     4435      539     2512
     7888       11       11       11        0       29      809      812      812     1195     5239      812     1196
     7889       11       11       11        0       30      811       31       31     1203     1212       31     1202
     7890       11       11       11        0      538      811      812      812     4430     5251      812     4431
     7891       11       11       11        0       29      812       30       30     1196     1204       30     1193
     7892       11       11       11        0      614      809      813      813     4750     5240      813     4751
! ... 17 like lines cut
eblock,10,,,36
(15i9)
     7909       10       10       10        0      199      812      809      809     2495     5239      809     2494
     7910       10       10       10        0       31      810       32       32     1211     1220       32     1208
     7911       10       10       10        0       60      203      581      581     1427     2519      581     1428
     7912       10       10       10        0       28      809       29       29     1189     1195       29     1188
     7913       10       10       10        0      202      615      810      810     2513     4757      810     2515
     7914       10       10       10        0      199      809      536      536     2494     4424      536     2491
     7915       10       10       10        0       30      812      811      811     1204     5251      811     1203
     7916       10       10       10        0      203      810      615      615     2524     4757      615     2520
     7917       10       10       10        0      200      812      537      537     2502     4427      537     2499
     7918       10       10       10        0       31      811      810      810     1212     5244      810     1211
     7919       10       10       10        0       32      810       60       60     1220     1430       60     1217
     7920       10       10       10        0      201      811      538      538     2509     4430      538     2506
     7921       10       10       10        0      201      539      811      811     2507     4436      811     2509
     7922       10       10       10        0       60      810      203      203     1430     2524      203     1427
     7923       10       10       10        0      202      810      539      539     2515     4435      539     2512
     7924       10       10       10        0       29      809      812      812     1195     5239      812     1196
     7925       10       10       10        0       30      811       31       31     1203     1212       31     1202
     7926       10       10       10        0      538      811      812      812     4430     5251      812     4431
     7927       10       10       10        0       29      812       30       30     1196     1204       30     1193
     7928       10       10       10        0      614      809      813      813     4750     5240      813     4751
! ... 17 like lines cut
eblock,10,,,24
(15i9)
     7945       10       11       10        0     5982     6001     5983     5983     6306     6313     5983     6302
     7946       10       11       10        0     5960     5961     6002     6002     6209     6222     6002     6213
     7947       10       11       10        0     5961     6001     6002     6002     6221     6370     6002     6222
     7948       10       11       10        0     5982     6002     6001     6001     6307     6370     6001     6306
     7949       10       11       10        0     5962     6003     6001     6001     6228     6371     6001     6227
     7950       10       11       10        0     5962     5963     6003     6003     6224     6233     6003     6228
     7951       10       11       10        0     5981     6002     5982     5982     6299     6307     5982     6296
     7952       10       11       10        0     5961     5962     6001     6001     6217     6227     6001     6221
     7953       10       11       10        0     5974     5985     5975     5975     6270     6274     5975     6267
     7954       10       11       10        0     5979     5998     5980     5980     6287     6293     5980     6284
     7955       10       11       10        0     5983     6003     5984     5984     6314     6319     5984     6309
     7956       10       11       10        0     5983     6001     6003     6003     6313     6371     6003     6314
     7957       10       11       10        0     5980     5998     6004     6004     6293     6365     6004     6294
     7958       10       11       10        0     5960     6002     6004     6004     6213     6374     6004     6214
     7959       10       11       10        0     5980     6004     5981     5981     6294     6300     5981     6289
     7960       10       11       10        0     5981     6004     6002     6002     6300     6374     6002     6299
     7961       10       11       10        0     5958     6004     5998     5998     6201     6365     5998     6199
     7962       10       11       10        0     5958     5960     6004     6004     6196     6214     6004     6201
     7963       10       11       10        0     5975     5985     6005     6005     6274     6324     6005     6276
     7964       10       11       10        0     5963     6005     6003     6003     6234     6377     6003     6233
! ... 5 like lines cut
eblock,10,,,24
(15i9)
     7969       11       10       11        0     5982     6001     5983     5983     6306     6313     5983     6302
     7970       11       10       11        0     5960     5961     6002     6002     6209     6222     6002     6213
     7971       11       10       11        0     5961     6001     6002     6002     6221     6370     6002     6222
     7972       11       10       11        0     5982     6002     6001     6001     6307     6370     6001     6306
     7973       11       10       11        0     5962     6003     6001     6001     6228     6371     6001     6227
     7974       11       10       11        0     5962     5963     6003     6003     6224     6233     6003     6228
     7975       11       10       11        0     5981     6002     5982     5982     6299     6307     5982     6296
     7976       11       10       11        0     5961     5962     6001     6001     6217     6227     6001     6221
     7977       11       10       11        0     5974     5985     5975     5975     6270     6274     5975     6267
     7978       11       10       11        0     5979     5998     5980     5980     6287     6293     5980     6284
     7979       11       10       11        0     5983     6003     5984     5984     6314     6319     5984     6309
     7980       11       10       11        0     5983     6001     6003     6003     6313     6371     6003     6314
     7981       11       10       11        0     5980     5998     6004     6004     6293     6365     6004     6294
     7982       11       10       11        0     5960     6002     6004     6004     6213     6374     6004     6214
     7983       11       10       11        0     5980     6004     5981     5981     6294     6300     5981     6289
     7984       11       10       11        0     5981     6004     6002     6002     6300     6374     6002     6299
     7985       11       10       11        0     5958     6004     5998     5998     6201     6365     5998     6199
     7986       11       10       11        0     5958     5960     6004     6004     6196     6214     6004     6201
     7987       11       10       11        0     5975     5985     6005     6005     6274     6324     6005     6276
     7988       11       10       11        0     5963     6005     6003     6003     6234     6377     6003     6233
! ... 5 like lines cut
keyo,cid,8,2               ! auto create asymmetric contact (from Program Controlled setting)
keyo,cid,10,0              ! adjust contact stiffness each NR iteration (from Program Controlled setting)
keyo,cid,12,0              ! standard contact
mp,mu,cid,0.22      ! unitless
keyo,cid,18,1              ! small sliding turned on by application
keyo,cid,2,0               ! augmented Lagrange (from Program Controlled setting)
keyo,cid,4,0               ! on Gauss point (from Program Controlled setting)
keyo,cid,9,0               ! use real geometry with stepped effects
keyo,cid,7,0               ! No Prediction
rmod,tid,3,1.       ! FKN
rmod,tid,5,0.       ! ICONT
rmod,tid,6,0.       ! PINB
rmod,tid,10,0.      ! CNOF
rmod,tid,12,0.      ! FKT
rmod,tid,36,61      ! WB DSID
rmod,cid,3,1.       ! FKN
rmod,cid,5,0.       ! ICONT
rmod,cid,6,0.       ! PINB
rmod,cid,10,0.      ! CNOF
rmod,cid,12,0.      ! FKT
rmod,cid,36,61      ! WB DSID
nsel,all
esel,all
/wb,contact,end            !  done creating contacts
/golist
/wb,load,start             !  starting to send loads
/com,******* Constant Zero Displacement X *******
CMBLOCK,_DISPZEROUX,NODE,      412
(8i10)
      5915      5916      5917      5918      5919      5920      5921      5922
      5923      5924      5925      5926      5927      5928      5929      5930
      5931      5932      5933      5934      5935      5936      5937      5938
      5939      5940      5941      5942      5943      5944      5945      5946
      5947      5948      5949      5950      5951      5952      5953      5954
      5955      5956      5957      5958      5959      5960      5961      5962
      5963      5964      5965      5966      5967      5968      5969      5970
      5971      5972      5973      5974      5975      5976      5977      5978
      5979      5980      5981      5982      5983      5984      5985      5986
      5987      5988      5989      5990      5991      5992      5993      5994
      5995      5996      5997      5998      5999      6000      6001      6002
      6003      6004      6005      6006      6007      6008      6009      6010
      6011      6012      6013      6014      6015      6016      6017      6018
      6019      6020      6021      6022      6023      6024      6025      6026
      6027      6028      6029      6030      6031      6032      6034      6035
      6036      6037      6038      6039      6040      6041      6042      6043
      6044      6045      6047      6048      6049      6050      6051      6052
      6053      6054      6055      6056      6059      6060      6061      6062
      6063      6065      6067      6068      6071      6072      6073      6075
      6076      6078      6079      6080      6083      6084      6086      6087
! ... 32 like lines cut
cmsel,s,_DISPZEROUX
d,all,ux,0
nsel,all
/com,******* Constant Zero Displacement Z *******
CMBLOCK,_DISPZEROUZ,NODE,      412
(8i10)
      5915      5916      5917      5918      5919      5920      5921      5922
      5923      5924      5925      5926      5927      5928      5929      5930
      5931      5932      5933      5934      5935      5936      5937      5938
      5939      5940      5941      5942      5943      5944      5945      5946
      5947      5948      5949      5950      5951      5952      5953      5954
      5955      5956      5957      5958      5959      5960      5961      5962
      5963      5964      5965      5966      5967      5968      5969      5970
      5971      5972      5973      5974      5975      5976      5977      5978
      5979      5980      5981      5982      5983      5984      5985      5986
      5987      5988      5989      5990      5991      5992      5993      5994
      5995      5996      5997      5998      5999      6000      6001      6002
      6003      6004      6005      6006      6007      6008      6009      6010
      6011      6012      6013      6014      6015      6016      6017      6018
      6019      6020      6021      6022      6023      6024      6025      6026
      6027      6028      6029      6030      6031      6032      6034      6035
      6036      6037      6038      6039      6040      6041      6042      6043
      6044      6045      6047      6048      6049      6050      6051      6052
      6053      6054      6055      6056      6059      6060      6061      6062
      6063      6065      6067      6068      6071      6072      6073      6075
      6076      6078      6079      6080      6083      6084      6086      6087
! ... 32 like lines cut
cmsel,s,_DISPZEROUZ
d,all,uz,0
nsel,all
/com,*********** Create Remote Point "Internal Remote Point 2" ***********
! -------- Remote Point Used by "Revolute - Ground To Solid" --------
*set,tid,13
*set,cid,12
et,cid,174
et,tid,170
keyo,tid,2,1               ! Don't fix the pilot node
keyo,tid,4,111111
keyo,cid,12,5              ! Bonded Contact 
keyo,cid,4,2               ! Rigid CERIG style load
keyo,cid,2,2               ! MPC style contact
eblock,10,,,26
(15i9)
     7993       12       12       12        0      267      266      280      280     2997     2999      280     3004
     7994       12       12       12        0      279      280      266      266     3067     2999      266     2998
     7995       12       12       12        0      258      257      271      271     2926     2928      271     2933
     7996       12       12       12        0      259      258      272      272     2932     2934      272     2939
     7997       12       12       12        0      270      271      257      257     3020     2928      257     2927
     7998       12       12       12        0      271      272      258      258     3026     2934      258     2933
     7999       12       12       12        0      260      259      273      273     2938     2940      273     2948
     8000       12       12       12        0      272      273      259      259     3030     2940      259     2939
     8001       12       12       12        0      263      262      276      276     2964     2966      276     2975
     8002       12       12       12        0      275      276      262      262     3047     2966      262     2965
     8003       12       12       12        0      262      261      275      275     2956     2958      275     2965
     8004       12       12       12        0      274      275      261      261     3040     2958      261     2957
     8005       12       12       12        0      264      263      277      277     2974     2976      277     2984
     8006       12       12       12        0      276      277      263      263     3052     2976      263     2975
     8007       12       12       12        0      261      260      274      274     2947     2949      274     2957
     8008       12       12       12        0      273      274      260      260     3034     2949      260     2948
     8009       12       12       12        0      265      264      278      278     2983     2985      278     2991
     8010       12       12       12        0      277      278      264      264     3058     2985      264     2984
     8011       12       12       12        0      266      265      279      279     2990     2992      279     2998
     8012       12       12       12        0      278      279      265      265     3064     2992      265     2991
! ... 7 like lines cut
*set,_npilot,6405
_npilot49=_npilot
type,tid
mat ,cid
real,cid
tshape,pilo
en,8019,_npilot
tshape
csys,12
nrot,6405
csys,0
/com,*********** Create Joint "Revolute - Ground To Solid" ***********
/com,            Real Constant Set For Above Joint Is 14
! Joint Element Type Declaration and Definition using MPC184
*set,_jid,14
et,_jid,184
keyo,_jid,1,6           ! Revolute Joint
keyo,_jid,4,1           ! Z Axis is revolute axis
sectype,_jid, joint, revo, _wbjoint
secjoint,,12,12
mat,_jid
real,_jid
type,_jid
secnum,_jid
en,7320,,6405        ! body to ground joint
/com,*********** Define Pressure Using Surface Effect Elements "Pressure" ***********
et,15,154
eblock,10,,,35
(15i9)
     8020       15       15       15        0     5950     5951     6016     6016     6175     6181     6016     6177
     8021       15       15       15        0     5923     6019     5924     5924     6067     6072     5924     6063
     8022       15       15       15        0     5949     5950     6018     6018     6172     6178     6018     6174
     8023       15       15       15        0     5928     6016     5929     5929     6086     6089     5929     6084
     8024       15       15       15        0     5950     6016     6018     6018     6177     6400     6018     6178
     8025       15       15       15        0     5925     6017     5926     5926     6075     6078     5926     6073
     8026       15       15       15        0     5927     6018     5928     5928     6083     6087     5928     6080
     8027       15       15       15        0     5948     6018     6017     6017     6171     6402     6017     6170
     8028       15       15       15        0     5926     6018     5927     5927     6079     6083     5927     6076
     8029       15       15       15        0     5928     6018     6016     6016     6087     6400     6016     6086
     8030       15       15       15        0     5946     5947     6017     6017     6160     6167     6017     6163
     8031       15       15       15        0     5926     6017     6018     6018     6078     6402     6018     6079
     8032       15       15       15        0     5948     5949     6018     6018     6168     6174     6018     6171
     8033       15       15       15        0     5924     6017     5925     5925     6071     6075     5925     6068
     8034       15       15       15        0     5933     5935     5954     5954     6104     6108     5954     6105
     8035       15       15       15        0     5947     5948     6017     6017     6165     6170     6017     6167
     8036       15       15       15        0     5952     6020     6016     6016     6185     6401     6016     6184
     8037       15       15       15        0     5951     5952     6016     6016     6179     6184     6016     6181
     8038       15       15       15        0     5922     5930     5934     5934     6061     6091     5934     6062
     8039       15       15       15        0     5943     5944     5957     5957     6152     6156     5957     6153
! ... 16 like lines cut
esel,s,type,,15
keyop,15,7,0                ! Use deformed area for application of load
esel,all
/com,*********** Define Pressure Using Surface Effect Elements "Pressure 2" ***********
et,16,154
eblock,10,,,35
(15i9)
     8055       16       16       16        0     5992     5993     6008     6008     6345     6351     6008     6347
     8056       16       16       16        0     5993     6007     6008     6008     6350     6385     6008     6351
     8057       16       16       16        0     5971     6007     5972     5972     6257     6261     5972     6255
     8058       16       16       16        0     5969     6008     5970     5970     6250     6254     5970     6249
     8059       16       16       16        0     5993     5994     6007     6007     6348     6354     6007     6350
     8060       16       16       16        0     5972     6009     5973     5973     6262     6266     5973     6258
     8061       16       16       16        0     5970     6008     6007     6007     6254     6385     6007     6253
     8062       16       16       16        0     5968     6006     6008     6008     6247     6383     6008     6248
     8063       16       16       16        0     5991     6008     6006     6006     6344     6383     6006     6343
     8064       16       16       16        0     5991     5992     6008     6008     6341     6347     6008     6344
     8065       16       16       16        0     5968     6008     5969     5969     6248     6250     5969     6245
     8066       16       16       16        0     5994     5995     6007     6007     6352     6358     6007     6354
     8067       16       16       16        0     5976     5978     5997     5997     6278     6282     5997     6279
     8068       16       16       16        0     5989     6010     5988     5988     6337     6333     5988     6332
     8069       16       16       16        0     5967     6006     5968     5968     6243     6247     5968     6242
     8070       16       16       16        0     5970     6007     5971     5971     6253     6257     5971     6251
     8071       16       16       16        0     5990     5991     6006     6006     6338     6343     6006     6340
     8072       16       16       16        0     5989     5990     6006     6006     6334     6340     6006     6336
     8073       16       16       16        0     5973     6009     5977     5977     6266     6281     5977     6264
     8074       16       16       16        0     5986     5987     6000     6000     6326     6330     6000     6327
! ... 16 like lines cut
esel,s,type,,16
keyop,16,7,0                ! Use deformed area for application of load
esel,all
esel,all
/com,*********** Define Rotational Velocity ***********
esel,none
esel,a,type,,1
cm,cm_rotvelcity69,elem
esel,all
/gst,on,on
fini
*get,_numnode,node,0,count
*get,_numelem,elem,0,count
*get, _MAXELEMNUM, elem, 0, NUM, MAX
*get, _MAXNODENUM, node, 0, NUM, MAX
*get, _MAXELEMTYPE, etyp, 0, NUM, MAX
*get, _MAXREALCONST, real, 0, NUM, MAX
/go
/wb,load,end               !  done creating loads
/com,--- Number of total nodes = %_numnode%
/com,--- Number of contact elements = 766
/com,--- Number of spring elements = 0
/com,--- Number of bearing elements = 0
/com,--- Number of solid elements = 3203
/com,--- Number of condensed parts = 0
/com,--- Number of total elements = %_numelem%
*get,_wallbsol,active,,time,wall
/com,****************************************************************************
/com,*************************    SOLUTION       ********************************
/com,****************************************************************************
/solu
antype,0                   ! static analysis
_thickRatio=0.5     ! Ratio of thick parts in the model
eqsl,sparse,,,,,1
cntr,print,1               ! print out contact info and also make no initial contact an error
dmpoption,emat,no             ! Don't combine emat file for DANSYS
dmpoption,esav,no             ! Don't combine esav file for DANSYS
nldiag,cont,iter           ! print out contact info each equilibrium iteration
rescontrol,define,last,last,,dele	   ! Program Controlled
/com,****************************************************
/com,******************* SOLVE FOR LS 1 OF 1 ****************
esel,s,type,,15
nsle
sf,all,pres,10.495
esel,s,type,,16
nsle
sf,all,pres,10.495
nsel,all
esel,all
cmom,cm_rotvelcity69,0.,250.,0.,0.000000,0.000000,0.000000
esel,all
/nopr
/gopr
autots,on                  ! Workbench Program Controlled automatic time stepping
nsub,5,20,1                ! due to presence of high frictional contact
time,1.
outres,erase
outres,all,none
outres,nsol,all,
outres,rsol,all
outres,eangl,all
outres,etmp,all
outres,veng,all
outres,strs,all,
outres,epel,all,
outres,eppl,all,
outres,cont,all,
/nopr
esel,s,type,,14
cm,_elmisc,elem
esel,all
/gopr
outres,misc,all,_elmisc
! *********** WB SOLVE COMMAND ***********
! check interactive state
*get,ANSINTER_,active,,int
*if,ANSINTER_,ne,0,then
/eof
*endif
solve
/com *************** Write FE CONNECTORS ********* 
CEWRITE,file,ce,,INTE
/com,****************************************************
/com,*************** FINISHED SOLVE FOR LS 1 *************
*get,_wallasol,active,,time,wall
/nopr
*get,_numnode,node,0,count
*get,_numelem,elem,0,count
*get, _MAXELEMNUM, elem, 0, NUM, MAX
*get, _MAXNODENUM, node, 0, NUM, MAX,,,INTERNAL
*get, _MAXELEMTYPE, etyp, 0, NUM, MAX
*get, _MAXREALCONST, real, 0, NUM, MAX
/gopr
/post1
xmlo,ENCODING,ISO-8859-1
xmlo,parm
/xml,parm,xml
fini
/gopr
*get,_walldone,active,,time,wall
_preptime=(_wallbsol-_wallstrt)*3600
_solvtime=(_wallasol-_wallbsol)*3600
_posttime=(_walldone-_wallasol)*3600
_totaltim=(_walldone-_wallstrt)*3600
*get,_dlbratio,active,0,solu,dlbr
*get,_combtime,active,0,solu,comb
*get,_ssmode,active,0,solu,ssmm
*get,_ndofs,active,0,solu,ndof
/com,--- Total number of nodes = %_numnode%
/com,--- Total number of elements = %_numelem%
/com,--- Element load balance ratio = %_dlbratio%
/com,--- Time to combine distributed files = %_combtime%
/com,--- Sparse memory mode = %_ssmode%
/com,--- Number of DOF = %_ndofs%
/wb,file,end               ! done with WB generated input
