/batch
/config,noeldb,1     ! force off writing results to database
*get,_wallstrt,active,,time,wall
! ANSYS input file written by Workbench version 2021 R2
! File used for geometry attach: C:\Users\CJ\PycharmProjects\DesignOptimization2021Fall\Project\Project 2 Ansys\Project 2_dp1_files\dp1\Geom\DM\Geom.agdb
/title,Project 2_dp1--Static Structural (B5)
! ****** Begin Custom Load Command Snippet ******
/COM, ACT Extensions:
/COM,     LSDYNA, 2021.1
/COM,     5f463412-bd3e-484b-87e7-cbc0a665e474, wbex
/COM,
! ****** End   Custom Load Command Snippet ******
*DIM,_wb_ProjectScratch_dir,string,248
_wb_ProjectScratch_dir(1) = 'C:\Users\CJ\PycharmProjects\DesignOptimization2021Fall\Project\Project 2 Ansys\_ProjectScratch\Scr59CB\'
*DIM,_wb_SolverFiles_dir,string,248
_wb_SolverFiles_dir(1) = 'C:\Users\CJ\PycharmProjects\DesignOptimization2021Fall\Project\Project 2 Ansys\Project 2_dp1_files\dp1\SYS\MECH\'
*DIM,_wb_userfiles_dir,string,248
_wb_userfiles_dir(1) = 'C:\Users\CJ\PycharmProjects\DesignOptimization2021Fall\Project\Project 2 Ansys\Project 2_dp1_files\user_files\'
/com,--- Data in consistent NMM units. See Solving Units in the help system for more information.
/units,MPA
/nopr
/wb,file,start              !  signify a WB generated input file
/prep7
! Turn off shape checking because checks already performed inside WB mesher.
! See help system for more information.
SHPP,OFF,,NOWARN
/nolist
etcon,set             ! allow ANSYS to choose best KEYOP's for 180x elements, resets any applicable keyopt to MAPDL defaults
/com,*********** Nodes for the whole assembly ***********
nblock,3,,15733
(1i9,3e20.9e3)
        1     2.329371406E+01     2.205427848E+01    -8.693332437E+01
        2     8.693332437E+01     2.205427848E+01    -2.329371406E+01
        3     2.612562095E+01     2.205427848E+01    -8.612463022E+01
        4     2.892955188E+01     2.205427848E+01    -8.522371165E+01
        5     3.170250431E+01     2.205427848E+01    -8.423153341E+01
        6     3.444150891E+01     2.205427848E+01    -8.314915793E+01
        7     3.714363268E+01     2.205427848E+01    -8.197774424E+01
        8     3.980598212E+01     2.205427848E+01    -8.071854674E+01
        9     4.242570631E+01     2.205427848E+01    -7.937291379E+01
       10     4.500000000E+01     2.205427848E+01    -7.794228634E+01
       11     4.752610656E+01     2.205427848E+01    -7.642819634E+01
       12     5.000132097E+01     2.205427848E+01    -7.483226511E+01
       13     5.242299272E+01     2.205427848E+01    -7.315620161E+01
       14     5.478852861E+01     2.205427848E+01    -7.140180063E+01
       15     5.709539557E+01     2.205427848E+01    -6.957094080E+01
       16     5.934112336E+01     2.205427848E+01    -6.766558267E+01
       17     6.152330718E+01     2.205427848E+01    -6.568776654E+01
       18     6.363961031E+01     2.205427848E+01    -6.363961031E+01
       19     6.568776654E+01     2.205427848E+01    -6.152330718E+01
       20     6.766558267E+01     2.205427848E+01    -5.934112336E+01
! ... 14284 like lines cut
/com,*********** Nodes for all Remote Points ***********
nblock,3
(1i9,3e20.9e3)
    14304     0.000000000E+00    -2.749999985E+01     1.292034336E-17
    14305     0.000000000E+00    -2.749999985E+01     1.292034336E-17
    14306    -7.213128076E-03     2.205427922E+01     7.213128076E-03
    14307    -7.213128076E-03     2.205427922E+01     7.213128076E-03
-1
/wb,elem,start            !  set before creation of elements
/com,*********** Elements for Body 1 "Solid" ***********
et,1,187
eblock,19,solid,,4295
(19i9)
        1        1        1        1        0        0        0        0       10        0     2550     6014     7219     6554     7214     9203    12207     9195     9202
    14302    12206
        1        1        1        1        0        0        0        0       10        0     2551     6014     7219     6750     6554     9203    12870     9198     9195
    12207    12203
        1        1        1        1        0        0        0        0       10        0     2552     6554     7219     7034     7214    12207    13894    12205    12206
    14302    13893
        1        1        1        1        0        0        0        0       10        0     2553     6554     6750     7034     7219    12203    12869    12205    12207
    12870    13894
        1        1        1        1        0        0        0        0       10        0     2554     6014     6784     7219     7214     9200    12994     9203     9202
    12993    14302
        1        1        1        1        0        0        0        0       10        0     2555     5931     6750     7219     7034     8591    12870     8595     8593
    12869    13894
        1        1        1        1        0        0        0        0       10        0     2556     7034     7219     7117     7214    13894    14226    13890    13893
    14302    14225
        1        1        1        1        0        0        0        0       10        0     2557     5931     7219     7117     7034     8595    14226     8594     8593
    13894    13890
        1        1        1        1        0        0        0        0       10        0     2558     6784     7117     7219     7214    12990    14226    12994    12993
    14225    14302
        1        1        1        1        0        0        0        0       10        0     2559     7016     7019     7218     7136    13771    13789    13775    13772
    13786    14259
! ... 8571 like lines cut
!Material Id = {53D035FE-1FAF-47DF-88C7-91DA346BBD0F}
/com,*********** Elements for Body 2 "Solid" ***********
et,2,187
eblock,19,solid,,1316
(19i9)
        2        2        2        2        0        0        0        0       10        0        1       96      112       97     1067     1628     1633     1626     1631
     1803     1636
        2        2        2        2        0        0        0        0       10        0        2       96       97      977     1067     1626     1634     1630     1631
     1636     5611
        2        2        2        2        0        0        0        0       10        0        3      112      787     1067     1058     1797     5080     1803     1802
     5079     5733
        2        2        2        2        0        0        0        0       10        0        4       97      977     1067      993     1634     5611     1636     1635
     5609     5629
        2        2        2        2        0        0        0        0       10        0        5       97     1067      112      993     1636     1803     1633     1635
     5629     1799
        2        2        2        2        0        0        0        0       10        0        6      112     1067      787      993     1803     5080     1797     1799
     5629     5077
        2        2        2        2        0        0        0        0       10        0        7      787     1067     1031      993     5080     5681     5078     5077
     5629     5628
        2        2        2        2        0        0        0        0       10        0        8       96      111      112     1067     1627     1787     1628     1631
     1795     1803
        2        2        2        2        0        0        0        0       10        0        9       96      977      702     1067     1630     4599     1629     1631
     5611     4602
        2        2        2        2        0        0        0        0       10        0       10      977     1031     1067      993     5610     5681     5611     5609
     5628     5629
! ... 2613 like lines cut
!Material Id = {D32244CD-CFC6-417D-93F7-A411BB2FD2CE}
/com,*********** Elements for Body 3 "Solid" ***********
et,3,187
eblock,19,solid,,1233
(19i9)
        3        3        2        3        0        0        0        0       10        0     1317      231     1072      490     1089     2512     3860     2509     2515
     5743     3861
        3        3        2        3        0        0        0        0       10        0     1318      314      491     1089      548     3117     3866     3119     3118
     3862     3995
        3        3        2        3        0        0        0        0       10        0     1319      548     1089     1086     1088     3995     5756     3993     3994
     5757     5755
        3        3        2        3        0        0        0        0       10        0     1320      314      490     1089      491     3116     3861     3119     3117
     3858     3866
        3        3        2        3        0        0        0        0       10        0     1321      394      548     1089     1086     3539     3995     3543     3542
     3993     5756
        3        3        2        3        0        0        0        0       10        0     1322      314     1089      394      548     3119     3543     3115     3118
     3995     3539
        3        3        2        3        0        0        0        0       10        0     1323      264      375      397     1089     2769     3458     2771     2776
     3463     3555
        3        3        2        3        0        0        0        0       10        0     1324      375     1089      490     1072     3463     3861     3460     3462
     5743     3860
        3        3        2        3        0        0        0        0       10        0     1325      314      490      375     1089     3116     3460     3114     3119
     3861     3463
        3        3        2        3        0        0        0        0       10        0     1326      264      394     1089     1086     2770     3543     2776     2775
     3542     5756
! ... 2447 like lines cut
!Material Id = {5B354B16-160F-446C-A262-007170286292}
/wb,elem,end               !  done creating elements
/com,*********** Send User Defined Coordinate System(s) ***********
local,12,0,0.,-27.4999998509884,1.29203433560791e-017,-180.,-90.,-180.
local,13,0,-7.21312807624014e-003,22.0542792230844,7.21312807623732e-003,0.,0.,0.
csys,0
toffst,273.15,  ! Temperature offset from absolute zero
/com,*********** Set Reference Temperature ***********
tref,22.
/wb,mat,start              !  starting to send materials
/com,*********** Send Materials ***********
Temperature = 'TEMP' ! Temperature
MP,DENS,1,7.2e-09,	! tonne mm^-3
MP,ALPX,1,1.1e-05,	! C^-1
MP,C,1,447000000,	! mm^2 s^-2 C^-1
MP,KXX,1,52,	! tonne mm s^-3 C^-1
MP,RSVX,1,9.6e-05,	! ohm mm
MP,EX,1,110000,	! tonne s^-2 mm^-1
MP,NUXY,1,0.28,
MP,MURX,1,10000,
MP,UVID,1,1e55ba3b-6eb7-440d-beac-2885ad80fc79
MP,UMID,1,f60bcced-8a07-4217-aedb-972d67ace671

Temperature = 'TEMP' ! Temperature
MP,DENS,2,7.85e-09,	! tonne mm^-3
MP,ALPX,2,1.2e-05,	! C^-1
MP,C,2,434000000,	! mm^2 s^-2 C^-1
MP,KXX,2,60.5,	! tonne mm s^-3 C^-1
MP,RSVX,2,0.00017,	! ohm mm
MP,EX,2,200000,	! tonne s^-2 mm^-1
MP,NUXY,2,0.3,
MP,MURX,2,10000,
MP,UVID,2,e010d15e-155b-4fae-ae6b-8d6bb5e3ee05
MP,UMID,2,59002a79-71c2-428e-906b-55d7dbee100e

Temperature = 'TEMP' ! Temperature
MP,DENS,3,7.85e-09,	! tonne mm^-3
MP,ALPX,3,1.2e-05,	! C^-1
MP,C,3,434000000,	! mm^2 s^-2 C^-1
MP,KXX,3,60.5,	! tonne mm s^-3 C^-1
MP,RSVX,3,0.00017,	! ohm mm
MP,EX,3,200000,	! tonne s^-2 mm^-1
MP,NUXY,3,0.3,
MP,MURX,3,10000,
MP,UVID,3,e010d15e-155b-4fae-ae6b-8d6bb5e3ee05
MP,UMID,3,59002a79-71c2-428e-906b-55d7dbee100e

/wb,mat,end                !  done sending materials
!************************* Model Summary ********************
!Solid,	Gray Cast Iron,	matid,	1
!Solid,	Structural Steel,	matid,	2
!Solid,	Structural Steel,	matid,	3
!************************* End Model Summary ********************
! get the diagonal of the bounding box. Needed later for other things
*get,_xmin,node,,mnloc,x
*get,_ymin,node,,mnloc,y
*get,_zmin,node,,mnloc,z
*get,_xmax,node,,mxloc,x
*get,_ymax,node,,mxloc,y
*get,_zmax,node,,mxloc,z
_ASMDIAG=(_xmax-_xmin)*(_xmax-_xmin)+(_ymax-_ymin)*(_ymax-_ymin)+(_zmax-_zmin)*(_zmax-_zmin)
_ASMDIAG=SQRT(_ASMDIAG)
/wb,contact,start          !  starting to send contact
/com,*********** Create Contact "Contact Region" ***********
/com,            Real Constant Set For Above Contact Is 5 & 4 
*set,tid,5
*set,cid,4
r,tid
r,cid
et,tid,170
et,cid,174
eblock,10,,,106
(15i9)
    11561        5        5        5        0     5866     5881     5867     5867     8125     8137     5867     8124
    11562        5        5        5        0     5865     5908     5877     5877     8117     8243     5877     8115
    11563        5        5        5        0     5865     5882     5866     5866     8116     8126     5866     8114
    11564        5        5        5        0     5865     5877     5882     5882     8115     8242     5882     8116
    11565        5        5        5        0     5867     5880     5879     5879     8136     8251     5879     8135
    11566        5        5        5        0     5867     5879     5868     5868     8135     8148     5868     8134
    11567        5        5        5        0     5867     5881     5880     5880     8137     8258     5880     8136
    11568        5        5        5        0     5866     5882     5881     5881     8126     8264     5881     8125
    11569        5        5        5        0     5868     5879     5878     5878     8148     8246     5878     8147
    11570        5        5        5        0     5869     5878     5876     5876     8158     8234     5876     8157
    11571        5        5        5        0     5869     5876     5883     5883     8157     8235     5883     8159
    11572        5        5        5        0     5868     5878     5869     5869     8147     8158     5869     8146
    11573        5        5        5        0     6033     6764     6566     6566     9322    12252     6566     9319
    11574        5        5        5        0     6031     6679     6762     6762     9307    12656     6762     9308
    11575        5        5        5        0     6034     6767     6681     6681     9331    12663     6681     9328
    11576        5        5        5        0     6035     6768     6682     6682     9339    12667     6682     9337
    11577        5        5        5        0     6033     6566     6765     6765     9319    12253     6765     9323
    11578        5        5        5        0     6034     6682     6766     6766     9329    12666     6766     9330
    11579        5        5        5        0     6003     6763     6680     6680     9116    12659     6680     9115
    11580        5        5        5        0     6031     6762     6564     6564     9308    12246     6564     9304
! ... 87 like lines cut
eblock,10,,,106
(15i9)
    11667        4        4        4        0     5866     5881     5867     5867     8125     8137     5867     8124
    11668        4        4        4        0     5865     5908     5877     5877     8117     8243     5877     8115
    11669        4        4        4        0     5865     5882     5866     5866     8116     8126     5866     8114
    11670        4        4        4        0     5865     5877     5882     5882     8115     8242     5882     8116
    11671        4        4        4        0     5867     5880     5879     5879     8136     8251     5879     8135
    11672        4        4        4        0     5867     5879     5868     5868     8135     8148     5868     8134
    11673        4        4        4        0     5867     5881     5880     5880     8137     8258     5880     8136
    11674        4        4        4        0     5866     5882     5881     5881     8126     8264     5881     8125
    11675        4        4        4        0     5868     5879     5878     5878     8148     8246     5878     8147
    11676        4        4        4        0     5869     5878     5876     5876     8158     8234     5876     8157
    11677        4        4        4        0     5869     5876     5883     5883     8157     8235     5883     8159
    11678        4        4        4        0     5868     5878     5869     5869     8147     8158     5869     8146
    11679        4        4        4        0     6033     6764     6566     6566     9322    12252     6566     9319
    11680        4        4        4        0     6031     6679     6762     6762     9307    12656     6762     9308
    11681        4        4        4        0     6034     6767     6681     6681     9331    12663     6681     9328
    11682        4        4        4        0     6035     6768     6682     6682     9339    12667     6682     9337
    11683        4        4        4        0     6033     6566     6765     6765     9319    12253     6765     9323
    11684        4        4        4        0     6034     6682     6766     6766     9329    12666     6766     9330
    11685        4        4        4        0     6003     6763     6680     6680     9116    12659     6680     9115
    11686        4        4        4        0     6031     6762     6564     6564     9308    12246     6564     9304
! ... 87 like lines cut
eblock,10,,,887
(15i9)
    11773        4        5        4        0      725      791      889      889     4732     5095      889     4734
    11774        4        5        4        0      657      785      892      892     4285     5067      892     4286
    11775        4        5        4        0      647      790      810      810     4208     5089      810     4209
    11776        4        5        4        0      649     1000      778      778     4227     5029      778     4223
    11777        4        5        4        0      654      778      998      998     4259     5028      998     4263
    11778        4        5        4        0      701      756      905      905     4591     4912      905     4594
    11779        4        5        4        0      704      814      859      859     4609     5189      859     4610
    11780        4        5        4        0      661      672      830      830     4316     4399      830     4317
    11781        4        5        4        0      918      838      755      755     5276     4906      755     4908
    11782        4        5        4        0      660     1029      939      939     4315     5539      939     4314
    11783        4        5        4        0      730      982      764      764     4761     4959      764     4759
    11784        4        5        4        0      662      674      683      683     4323     4411      683     4324
    11785        4        5        4        0      663      827      965      965     4332     5239      965     4335
    11786        4        5        4        0      806      988      987      987     5164     5624      987     5163
    11787        4        5        4        0      681      798      762      762     4466     4944      762     4464
    11788        4        5        4        0      757      892      908      908     4915     5431      908     4917
    11789        4        5        4        0      650      827      759      759     4234     4928      759     4232
    11790        4        5        4        0      701      887      826      826     4593     5236      826     4592
    11791        4        5        4        0      681      767      798      798     4465     4973      798     4466
    11792        4        5        4        0      718      836      860      860     4691     5269      860     4693
! ... 868 like lines cut
eblock,10,,,887
(15i9)
    12660        5        4        5        0      725      791      889      889     4732     5095      889     4734
    12661        5        4        5        0      657      785      892      892     4285     5067      892     4286
    12662        5        4        5        0      647      790      810      810     4208     5089      810     4209
    12663        5        4        5        0      649     1000      778      778     4227     5029      778     4223
    12664        5        4        5        0      654      778      998      998     4259     5028      998     4263
    12665        5        4        5        0      701      756      905      905     4591     4912      905     4594
    12666        5        4        5        0      704      814      859      859     4609     5189      859     4610
    12667        5        4        5        0      661      672      830      830     4316     4399      830     4317
    12668        5        4        5        0      918      838      755      755     5276     4906      755     4908
    12669        5        4        5        0      660     1029      939      939     4315     5539      939     4314
    12670        5        4        5        0      730      982      764      764     4761     4959      764     4759
    12671        5        4        5        0      662      674      683      683     4323     4411      683     4324
    12672        5        4        5        0      663      827      965      965     4332     5239      965     4335
    12673        5        4        5        0      806      988      987      987     5164     5624      987     5163
    12674        5        4        5        0      681      798      762      762     4466     4944      762     4464
    12675        5        4        5        0      757      892      908      908     4915     5431      908     4917
    12676        5        4        5        0      650      827      759      759     4234     4928      759     4232
    12677        5        4        5        0      701      887      826      826     4593     5236      826     4592
    12678        5        4        5        0      681      767      798      798     4465     4973      798     4466
    12679        5        4        5        0      718      836      860      860     4691     5269      860     4693
! ... 868 like lines cut
keyo,cid,8,2               ! auto create asymmetric contact (from Program Controlled setting)
keyo,cid,10,0              ! adjust contact stiffness each NR iteration (from Program Controlled setting)
keyo,cid,12,5              ! bonded always
keyo,cid,18,1              ! small sliding turned on by application
keyo,cid,2,0               ! augmented Lagrange (from Program Controlled setting)
keyo,cid,4,0               ! on Gauss point (from Program Controlled setting)
keyo,cid,9,1               ! ignore initial gaps/penetration
keyo,cid,7,0               ! No Prediction
rmod,tid,3,1.       ! FKN
rmod,tid,5,0.       ! ICONT
rmod,tid,6,0.       ! PINB
rmod,tid,10,0.      ! CNOF
rmod,tid,12,0.      ! FKT
rmod,tid,36,30      ! WB DSID
rmod,cid,3,1.       ! FKN
rmod,cid,5,0.       ! ICONT
rmod,cid,6,0.       ! PINB
rmod,cid,10,0.      ! CNOF
rmod,cid,12,0.      ! FKT
rmod,cid,36,30      ! WB DSID
/com,*********** Create Contact "Contact Region 2" ***********
/com,            Real Constant Set For Above Contact Is 7 & 6 
*set,tid,7
*set,cid,6
r,tid
r,cid
et,tid,170
et,cid,174
eblock,10,,,106
(15i9)
    13547        7        7        7        0     5774     5812     5780     5780     7345     7394     5780     7344
    13548        7        7        7        0     5773     5774     5780     5780     7335     7344     5780     7336
    13549        7        7        7        0     5773     5780     5782     5782     7336     7393     5782     7337
    13550        7        7        7        0     5772     5783     5784     5784     7328     7416     5784     7329
    13551        7        7        7        0     5773     5782     5783     5783     7337     7408     5783     7338
    13552        7        7        7        0     5770     5771     5786     5786     7312     7322     5786     7314
    13553        7        7        7        0     5770     5786     5781     5781     7314     7401     5781     7313
    13554        7        7        7        0     5770     5781     5787     5787     7313     7402     5787     7315
    13555        7        7        7        0     5772     5773     5783     5783     7327     7338     5783     7328
    13556        7        7        7        0     5771     5784     5785     5785     7320     7427     5785     7321
    13557        7        7        7        0     5771     5772     5784     5784     7319     7329     5784     7320
    13558        7        7        7        0     5771     5785     5786     5786     7321     7435     5786     7322
    13559        7        7        7        0     5953     6530     5981     5981     8750     8952     5981     8749
    13560        7        7        7        0     5980     6713     6633     6633     8948    12515     6633     8946
    13561        7        7        7        0     5953     5981     6633     6633     8749     8953     6633     8751
    13562        7        7        7        0     5954     5980     6632     6632     8756     8945     6632     8759
    13563        7        7        7        0     5981     6530     6712     6712     8952    12098     6712     8956
    13564        7        7        7        0     5981     6712     6634     6634     8956    12519     6634     8954
    13565        7        7        7        0     5813     6607     5979     5979     7686     8938     5979     7683
    13566        7        7        7        0     5980     6531     6713     6713     8944    12102     6713     8948
! ... 87 like lines cut
eblock,10,,,106
(15i9)
    13653        6        6        6        0     5774     5812     5780     5780     7345     7394     5780     7344
    13654        6        6        6        0     5773     5774     5780     5780     7335     7344     5780     7336
    13655        6        6        6        0     5773     5780     5782     5782     7336     7393     5782     7337
    13656        6        6        6        0     5772     5783     5784     5784     7328     7416     5784     7329
    13657        6        6        6        0     5773     5782     5783     5783     7337     7408     5783     7338
    13658        6        6        6        0     5770     5771     5786     5786     7312     7322     5786     7314
    13659        6        6        6        0     5770     5786     5781     5781     7314     7401     5781     7313
    13660        6        6        6        0     5770     5781     5787     5787     7313     7402     5787     7315
    13661        6        6        6        0     5772     5773     5783     5783     7327     7338     5783     7328
    13662        6        6        6        0     5771     5784     5785     5785     7320     7427     5785     7321
    13663        6        6        6        0     5771     5772     5784     5784     7319     7329     5784     7320
    13664        6        6        6        0     5771     5785     5786     5786     7321     7435     5786     7322
    13665        6        6        6        0     5953     6530     5981     5981     8750     8952     5981     8749
    13666        6        6        6        0     5980     6713     6633     6633     8948    12515     6633     8946
    13667        6        6        6        0     5953     5981     6633     6633     8749     8953     6633     8751
    13668        6        6        6        0     5954     5980     6632     6632     8756     8945     6632     8759
    13669        6        6        6        0     5981     6530     6712     6712     8952    12098     6712     8956
    13670        6        6        6        0     5981     6712     6634     6634     8956    12519     6634     8954
    13671        6        6        6        0     5813     6607     5979     5979     7686     8938     5979     7683
    13672        6        6        6        0     5980     6531     6713     6713     8944    12102     6713     8948
! ... 87 like lines cut
eblock,10,,,859
(15i9)
    13759        6        7        6        0      352      440      426      426     3346     3667      426     3345
    13760        6        7        6        0      325      454      623      623     3179     3767      623     3182
    13761        6        7        6        0      290      525      472      472     2963     3823      472     2961
    13762        6        7        6        0      381      482      532      532     3486     3842      532     3488
    13763        6        7        6        0      328      590      460      460     3195     3783      460     3193
    13764        6        7        6        0      274      296      287      287     2847     2938      287     2846
    13765        6        7        6        0      279      446      612      612     2886     3739      612     2887
    13766        6        7        6        0      327      457      625      625     3188     3775      625     3191
    13767        6        7        6        0      260      419      386      386     2743     3512      386     2742
    13768        6        7        6        0      282      417      365      365     2907     3417      365     2903
    13769        6        7        6        0      379      554      474      474     3479     3831      474     3478
    13770        6        7        6        0      262      439      376      376     2758     3464      376     2756
    13771        6        7        6        0      370      498      547      547     3435     3880      547     3438
    13772        6        7        6        0      314      548      394      394     3118     3539      394     3115
    13773        6        7        6        0      335      584      409      409     3233     3610      409     3230
    13774        6        7        6        0      266      563      610      610     2789     4017      610     2791
    13775        6        7        6        0      377      540      551      551     3469     3976      551     3470
    13776        6        7        6        0      250      462      489      489     2664     3790      489     2665
    13777        6        7        6        0      254      407      304      304     2693     3053      304     2691
    13778        6        7        6        0      277      472      400      400     2872     3568      400     2869
! ... 840 like lines cut
eblock,10,,,859
(15i9)
    14618        7        6        7        0      352      440      426      426     3346     3667      426     3345
    14619        7        6        7        0      325      454      623      623     3179     3767      623     3182
    14620        7        6        7        0      290      525      472      472     2963     3823      472     2961
    14621        7        6        7        0      381      482      532      532     3486     3842      532     3488
    14622        7        6        7        0      328      590      460      460     3195     3783      460     3193
    14623        7        6        7        0      274      296      287      287     2847     2938      287     2846
    14624        7        6        7        0      279      446      612      612     2886     3739      612     2887
    14625        7        6        7        0      327      457      625      625     3188     3775      625     3191
    14626        7        6        7        0      260      419      386      386     2743     3512      386     2742
    14627        7        6        7        0      282      417      365      365     2907     3417      365     2903
    14628        7        6        7        0      379      554      474      474     3479     3831      474     3478
    14629        7        6        7        0      262      439      376      376     2758     3464      376     2756
    14630        7        6        7        0      370      498      547      547     3435     3880      547     3438
    14631        7        6        7        0      314      548      394      394     3118     3539      394     3115
    14632        7        6        7        0      335      584      409      409     3233     3610      409     3230
    14633        7        6        7        0      266      563      610      610     2789     4017      610     2791
    14634        7        6        7        0      377      540      551      551     3469     3976      551     3470
    14635        7        6        7        0      250      462      489      489     2664     3790      489     2665
    14636        7        6        7        0      254      407      304      304     2693     3053      304     2691
    14637        7        6        7        0      277      472      400      400     2872     3568      400     2869
! ... 840 like lines cut
keyo,cid,8,2               ! auto create asymmetric contact (from Program Controlled setting)
keyo,cid,10,0              ! adjust contact stiffness each NR iteration (from Program Controlled setting)
keyo,cid,12,5              ! bonded always
keyo,cid,18,1              ! small sliding turned on by application
keyo,cid,2,0               ! augmented Lagrange (from Program Controlled setting)
keyo,cid,4,0               ! on Gauss point (from Program Controlled setting)
keyo,cid,9,1               ! ignore initial gaps/penetration
keyo,cid,7,0               ! No Prediction
rmod,tid,3,1.       ! FKN
rmod,tid,5,0.       ! ICONT
rmod,tid,6,0.       ! PINB
rmod,tid,10,0.      ! CNOF
rmod,tid,12,0.      ! FKT
rmod,tid,36,33      ! WB DSID
rmod,cid,3,1.       ! FKN
rmod,cid,5,0.       ! ICONT
rmod,cid,6,0.       ! PINB
rmod,cid,10,0.      ! CNOF
rmod,cid,12,0.      ! FKT
rmod,cid,36,33      ! WB DSID
/com,*********** Create Contact "Frictional - Solid To Solid" ***********
/com,            Real Constant Set For Above Contact Is 9 & 8 
*set,tid,9
*set,cid,8
r,tid
r,cid
et,tid,170
et,cid,174
eblock,10,,,52
(15i9)
    15477        9        9        9        0     5881     5882     7005     7005     8264     8269     7005     8266
    15478        9        9        9        0     5876     7004     5910     5910     8237     8439     5910     8236
    15479        9        9        9        0     5881     7005     7003     7003     8266    13697     7003     8265
    15480        9        9        9        0     5877     7005     5882     5882     8245     8269     5882     8242
    15481        9        9        9        0     6005     6564     7005     7005     9134    12247     7005     9137
    15482        9        9        9        0     6568     7006     6768     6768    12264    12926     6768    12262
    15483        9        9        9        0     5999     7004     6569     6569     9094    12268     6569     9091
    15484        9        9        9        0     5999     6652     7004     7004     9092    12578     7004     9094
    15485        9        9        9        0     5876     5878     7004     7004     8234     8247     7004     8237
    15486        9        9        9        0     5909     6592     6652     6652     8430    12359     6652     8432
    15487        9        9        9        0     5910     7004     6592     6592     8439    12360     6592     8437
    15488        9        9        9        0     6569     7004     6769     6769    12268    12927     6769    12267
    15489        9        9        9        0     6605     6653     7005     7005    12413    12583     7005    12414
    15490        9        9        9        0     6005     7005     6653     6653     9137    12583     6653     9135
    15491        9        9        9        0     6564     6762     7005     7005    12246    12908     7005    12247
    15492        9        9        9        0     5877     5947     7005     7005     8244     8709     7005     8245
    15493        9        9        9        0     7003     7008     7010     7010    13699    13727     7010    13700
    15494        9        9        9        0     5947     6605     7005     7005     8708    12414     7005     8709
    15495        9        9        9        0     6592     7004     6652     6652    12360    12578     6652    12359
    15496        9        9        9        0     7002     7007     7006     7006    13690    13717     7006    13689
! ... 33 like lines cut
eblock,10,,,52
(15i9)
    15529        8        8        8        0     5881     5882     7005     7005     8264     8269     7005     8266
    15530        8        8        8        0     5876     7004     5910     5910     8237     8439     5910     8236
    15531        8        8        8        0     5881     7005     7003     7003     8266    13697     7003     8265
    15532        8        8        8        0     5877     7005     5882     5882     8245     8269     5882     8242
    15533        8        8        8        0     6005     6564     7005     7005     9134    12247     7005     9137
    15534        8        8        8        0     6568     7006     6768     6768    12264    12926     6768    12262
    15535        8        8        8        0     5999     7004     6569     6569     9094    12268     6569     9091
    15536        8        8        8        0     5999     6652     7004     7004     9092    12578     7004     9094
    15537        8        8        8        0     5876     5878     7004     7004     8234     8247     7004     8237
    15538        8        8        8        0     5909     6592     6652     6652     8430    12359     6652     8432
    15539        8        8        8        0     5910     7004     6592     6592     8439    12360     6592     8437
    15540        8        8        8        0     6569     7004     6769     6769    12268    12927     6769    12267
    15541        8        8        8        0     6605     6653     7005     7005    12413    12583     7005    12414
    15542        8        8        8        0     6005     7005     6653     6653     9137    12583     6653     9135
    15543        8        8        8        0     6564     6762     7005     7005    12246    12908     7005    12247
    15544        8        8        8        0     5877     5947     7005     7005     8244     8709     7005     8245
    15545        8        8        8        0     7003     7008     7010     7010    13699    13727     7010    13700
    15546        8        8        8        0     5947     6605     7005     7005     8708    12414     7005     8709
    15547        8        8        8        0     6592     7004     6652     6652    12360    12578     6652    12359
    15548        8        8        8        0     7002     7007     7006     7006    13690    13717     7006    13689
! ... 33 like lines cut
eblock,10,,,887
(15i9)
    15581        8        9        8        0      725      791      889      889     4732     5095      889     4734
    15582        8        9        8        0      657      785      892      892     4285     5067      892     4286
    15583        8        9        8        0      647      790      810      810     4208     5089      810     4209
    15584        8        9        8        0      649     1000      778      778     4227     5029      778     4223
    15585        8        9        8        0      654      778      998      998     4259     5028      998     4263
    15586        8        9        8        0      701      756      905      905     4591     4912      905     4594
    15587        8        9        8        0      704      814      859      859     4609     5189      859     4610
    15588        8        9        8        0      661      672      830      830     4316     4399      830     4317
    15589        8        9        8        0      918      838      755      755     5276     4906      755     4908
    15590        8        9        8        0      660     1029      939      939     4315     5539      939     4314
    15591        8        9        8        0      730      982      764      764     4761     4959      764     4759
    15592        8        9        8        0      662      674      683      683     4323     4411      683     4324
    15593        8        9        8        0      663      827      965      965     4332     5239      965     4335
    15594        8        9        8        0      806      988      987      987     5164     5624      987     5163
    15595        8        9        8        0      681      798      762      762     4466     4944      762     4464
    15596        8        9        8        0      757      892      908      908     4915     5431      908     4917
    15597        8        9        8        0      650      827      759      759     4234     4928      759     4232
    15598        8        9        8        0      701      887      826      826     4593     5236      826     4592
    15599        8        9        8        0      681      767      798      798     4465     4973      798     4466
    15600        8        9        8        0      718      836      860      860     4691     5269      860     4693
! ... 868 like lines cut
eblock,10,,,887
(15i9)
    16468        9        8        9        0      725      791      889      889     4732     5095      889     4734
    16469        9        8        9        0      657      785      892      892     4285     5067      892     4286
    16470        9        8        9        0      647      790      810      810     4208     5089      810     4209
    16471        9        8        9        0      649     1000      778      778     4227     5029      778     4223
    16472        9        8        9        0      654      778      998      998     4259     5028      998     4263
    16473        9        8        9        0      701      756      905      905     4591     4912      905     4594
    16474        9        8        9        0      704      814      859      859     4609     5189      859     4610
    16475        9        8        9        0      661      672      830      830     4316     4399      830     4317
    16476        9        8        9        0      918      838      755      755     5276     4906      755     4908
    16477        9        8        9        0      660     1029      939      939     4315     5539      939     4314
    16478        9        8        9        0      730      982      764      764     4761     4959      764     4759
    16479        9        8        9        0      662      674      683      683     4323     4411      683     4324
    16480        9        8        9        0      663      827      965      965     4332     5239      965     4335
    16481        9        8        9        0      806      988      987      987     5164     5624      987     5163
    16482        9        8        9        0      681      798      762      762     4466     4944      762     4464
    16483        9        8        9        0      757      892      908      908     4915     5431      908     4917
    16484        9        8        9        0      650      827      759      759     4234     4928      759     4232
    16485        9        8        9        0      701      887      826      826     4593     5236      826     4592
    16486        9        8        9        0      681      767      798      798     4465     4973      798     4466
    16487        9        8        9        0      718      836      860      860     4691     5269      860     4693
! ... 868 like lines cut
keyo,cid,8,2               ! auto create asymmetric contact (from Program Controlled setting)
keyo,cid,10,0              ! adjust contact stiffness each NR iteration (from Program Controlled setting)
keyo,cid,12,0              ! standard contact
mp,mu,cid,0.22      ! unitless
keyo,cid,18,1              ! small sliding turned on by application
keyo,cid,2,0               ! augmented Lagrange (from Program Controlled setting)
keyo,cid,4,0               ! on Gauss point (from Program Controlled setting)
keyo,cid,9,0               ! use real geometry with stepped effects
keyo,cid,7,0               ! No Prediction
rmod,tid,3,1.       ! FKN
rmod,tid,5,0.       ! ICONT
rmod,tid,6,0.       ! PINB
rmod,tid,10,0.      ! CNOF
rmod,tid,12,0.      ! FKT
rmod,tid,36,58      ! WB DSID
rmod,cid,3,1.       ! FKN
rmod,cid,5,0.       ! ICONT
rmod,cid,6,0.       ! PINB
rmod,cid,10,0.      ! CNOF
rmod,cid,12,0.      ! FKT
rmod,cid,36,58      ! WB DSID
/com,*********** Create Contact "Frictional - Solid To Solid" ***********
/com,            Real Constant Set For Above Contact Is 11 & 10 
*set,tid,11
*set,cid,10
r,tid
r,cid
et,tid,170
et,cid,174
eblock,10,,,52
(15i9)
    17355       11       11       11        0     6526     6706     7013     7013    12077    12729     7013    12078
    17356       11       11       11        0     5780     5851     7013     7013     7395     7974     7013     7398
    17357       11       11       11        0     7011     7016     7012     7012    13743    13749     7012    13741
    17358       11       11       11        0     5813     6578     6607     6607     7684    12300     6607     7686
    17359       11       11       11        0     5948     6526     7013     7013     8717    12078     7013     8720
    17360       11       11       11        0     6527     6707     7015     7015    12081    12733     7015    12083
    17361       11       11       11        0     6531     7014     6713     6713    12103    12747     6713    12102
    17362       11       11       11        0     7012     7019     7017     7017    13751    13776     7017    13750
    17363       11       11       11        0     5783     7011     5784     5784     7421     7431     5784     7416
    17364       11       11       11        0     5780     7013     5782     5782     7398     7412     5782     7393
    17365       11       11       11        0     5954     6607     7014     7014     8758    12422     7014     8760
    17366       11       11       11        0     5814     7014     6578     6578     7694    12301     6578     7692
    17367       11       11       11        0     7012     7016     7019     7019    13749    13771     7019    13751
    17368       11       11       11        0     5784     7012     5785     5785     7432     7439     5785     7427
    17369       11       11       11        0     5784     7011     7012     7012     7431    13741     7012     7432
    17370       11       11       11        0     5815     6606     6591     6591     7700    12353     6591     7699
    17371       11       11       11        0     5851     6591     7013     7013     7973    12354     7013     7974
    17372       11       11       11        0     7011     7018     7015     7015    13744    13766     7015    13742
    17373       11       11       11        0     7012     7017     7014     7014    13750    13760     7014    13748
    17374       11       11       11        0     5948     7013     6606     6606     8720    12419     6606     8718
! ... 33 like lines cut
eblock,10,,,52
(15i9)
    17407       10       10       10        0     6526     6706     7013     7013    12077    12729     7013    12078
    17408       10       10       10        0     5780     5851     7013     7013     7395     7974     7013     7398
    17409       10       10       10        0     7011     7016     7012     7012    13743    13749     7012    13741
    17410       10       10       10        0     5813     6578     6607     6607     7684    12300     6607     7686
    17411       10       10       10        0     5948     6526     7013     7013     8717    12078     7013     8720
    17412       10       10       10        0     6527     6707     7015     7015    12081    12733     7015    12083
    17413       10       10       10        0     6531     7014     6713     6713    12103    12747     6713    12102
    17414       10       10       10        0     7012     7019     7017     7017    13751    13776     7017    13750
    17415       10       10       10        0     5783     7011     5784     5784     7421     7431     5784     7416
    17416       10       10       10        0     5780     7013     5782     5782     7398     7412     5782     7393
    17417       10       10       10        0     5954     6607     7014     7014     8758    12422     7014     8760
    17418       10       10       10        0     5814     7014     6578     6578     7694    12301     6578     7692
    17419       10       10       10        0     7012     7016     7019     7019    13749    13771     7019    13751
    17420       10       10       10        0     5784     7012     5785     5785     7432     7439     5785     7427
    17421       10       10       10        0     5784     7011     7012     7012     7431    13741     7012     7432
    17422       10       10       10        0     5815     6606     6591     6591     7700    12353     6591     7699
    17423       10       10       10        0     5851     6591     7013     7013     7973    12354     7013     7974
    17424       10       10       10        0     7011     7018     7015     7015    13744    13766     7015    13742
    17425       10       10       10        0     7012     7017     7014     7014    13750    13760     7014    13748
    17426       10       10       10        0     5948     7013     6606     6606     8720    12419     6606     8718
! ... 33 like lines cut
eblock,10,,,859
(15i9)
    17459       10       11       10        0      352      440      426      426     3346     3667      426     3345
    17460       10       11       10        0      325      454      623      623     3179     3767      623     3182
    17461       10       11       10        0      290      525      472      472     2963     3823      472     2961
    17462       10       11       10        0      381      482      532      532     3486     3842      532     3488
    17463       10       11       10        0      328      590      460      460     3195     3783      460     3193
    17464       10       11       10        0      274      296      287      287     2847     2938      287     2846
    17465       10       11       10        0      279      446      612      612     2886     3739      612     2887
    17466       10       11       10        0      327      457      625      625     3188     3775      625     3191
    17467       10       11       10        0      260      419      386      386     2743     3512      386     2742
    17468       10       11       10        0      282      417      365      365     2907     3417      365     2903
    17469       10       11       10        0      379      554      474      474     3479     3831      474     3478
    17470       10       11       10        0      262      439      376      376     2758     3464      376     2756
    17471       10       11       10        0      370      498      547      547     3435     3880      547     3438
    17472       10       11       10        0      314      548      394      394     3118     3539      394     3115
    17473       10       11       10        0      335      584      409      409     3233     3610      409     3230
    17474       10       11       10        0      266      563      610      610     2789     4017      610     2791
    17475       10       11       10        0      377      540      551      551     3469     3976      551     3470
    17476       10       11       10        0      250      462      489      489     2664     3790      489     2665
    17477       10       11       10        0      254      407      304      304     2693     3053      304     2691
    17478       10       11       10        0      277      472      400      400     2872     3568      400     2869
! ... 840 like lines cut
eblock,10,,,859
(15i9)
    18318       11       10       11        0      352      440      426      426     3346     3667      426     3345
    18319       11       10       11        0      325      454      623      623     3179     3767      623     3182
    18320       11       10       11        0      290      525      472      472     2963     3823      472     2961
    18321       11       10       11        0      381      482      532      532     3486     3842      532     3488
    18322       11       10       11        0      328      590      460      460     3195     3783      460     3193
    18323       11       10       11        0      274      296      287      287     2847     2938      287     2846
    18324       11       10       11        0      279      446      612      612     2886     3739      612     2887
    18325       11       10       11        0      327      457      625      625     3188     3775      625     3191
    18326       11       10       11        0      260      419      386      386     2743     3512      386     2742
    18327       11       10       11        0      282      417      365      365     2907     3417      365     2903
    18328       11       10       11        0      379      554      474      474     3479     3831      474     3478
    18329       11       10       11        0      262      439      376      376     2758     3464      376     2756
    18330       11       10       11        0      370      498      547      547     3435     3880      547     3438
    18331       11       10       11        0      314      548      394      394     3118     3539      394     3115
    18332       11       10       11        0      335      584      409      409     3233     3610      409     3230
    18333       11       10       11        0      266      563      610      610     2789     4017      610     2791
    18334       11       10       11        0      377      540      551      551     3469     3976      551     3470
    18335       11       10       11        0      250      462      489      489     2664     3790      489     2665
    18336       11       10       11        0      254      407      304      304     2693     3053      304     2691
    18337       11       10       11        0      277      472      400      400     2872     3568      400     2869
! ... 840 like lines cut
keyo,cid,8,2               ! auto create asymmetric contact (from Program Controlled setting)
keyo,cid,10,0              ! adjust contact stiffness each NR iteration (from Program Controlled setting)
keyo,cid,12,0              ! standard contact
mp,mu,cid,0.22      ! unitless
keyo,cid,18,1              ! small sliding turned on by application
keyo,cid,2,0               ! augmented Lagrange (from Program Controlled setting)
keyo,cid,4,0               ! on Gauss point (from Program Controlled setting)
keyo,cid,9,0               ! use real geometry with stepped effects
keyo,cid,7,0               ! No Prediction
rmod,tid,3,1.       ! FKN
rmod,tid,5,0.       ! ICONT
rmod,tid,6,0.       ! PINB
rmod,tid,10,0.      ! CNOF
rmod,tid,12,0.      ! FKT
rmod,tid,36,61      ! WB DSID
rmod,cid,3,1.       ! FKN
rmod,cid,5,0.       ! ICONT
rmod,cid,6,0.       ! PINB
rmod,cid,10,0.      ! CNOF
rmod,cid,12,0.      ! FKT
rmod,cid,36,61      ! WB DSID
nsel,all
esel,all
/wb,contact,end            !  done creating contacts
/golist
/wb,load,start             !  starting to send loads
/com,******* Constant Zero Displacement X *******
CMBLOCK,_DISPZEROUX,NODE,     4132
(8i10)
         1         2         3         4         5         6         7         8
         9        10        11        12        13        14        15        16
        17        18        19        20        21        22        23        24
        25        26        27        28        29        30        31        32
        33        34        35        36        37        38        39        40
        41        42        43        44        45        46        47        48
        49        50        51        52        53        54        55        56
        57        58        59        60        61        62        63        64
        65        66        67        68        69        70        71        72
        73        74        75        76        77        78        79        80
        81        82        83        84        85        86        87        88
        89        90        91        92        93        94        95        96
        97        98        99       100       101       102       103       104
       105       106       107       108       109       110       111       112
       113       114       115       116       117       118       119       120
       121       122       123       124       125       126       127       128
       129       130       131       132       133       134       135       136
       137       138       139       140       141       142       143       144
       145       146       147       148       149       150       151       152
       153       154       155       156       157       158       159       160
! ... 497 like lines cut
cmsel,s,_DISPZEROUX
d,all,ux,0
nsel,all
/com,******* Constant Zero Displacement Z *******
CMBLOCK,_DISPZEROUZ,NODE,     4132
(8i10)
         1         2         3         4         5         6         7         8
         9        10        11        12        13        14        15        16
        17        18        19        20        21        22        23        24
        25        26        27        28        29        30        31        32
        33        34        35        36        37        38        39        40
        41        42        43        44        45        46        47        48
        49        50        51        52        53        54        55        56
        57        58        59        60        61        62        63        64
        65        66        67        68        69        70        71        72
        73        74        75        76        77        78        79        80
        81        82        83        84        85        86        87        88
        89        90        91        92        93        94        95        96
        97        98        99       100       101       102       103       104
       105       106       107       108       109       110       111       112
       113       114       115       116       117       118       119       120
       121       122       123       124       125       126       127       128
       129       130       131       132       133       134       135       136
       137       138       139       140       141       142       143       144
       145       146       147       148       149       150       151       152
       153       154       155       156       157       158       159       160
! ... 497 like lines cut
cmsel,s,_DISPZEROUZ
d,all,uz,0
nsel,all
/com,*********** Create Remote Point "Internal Remote Point 2" ***********
! -------- Remote Point Used by "Revolute - Ground To Solid" --------
*set,tid,13
*set,cid,12
et,cid,174
et,tid,170
keyo,tid,2,1               ! Don't fix the pilot node
keyo,tid,4,111111
keyo,cid,12,5              ! Bonded Contact 
keyo,cid,4,2               ! Rigid CERIG style load
keyo,cid,2,2               ! MPC style contact
eblock,10,,,26
(15i9)
    19177       12       12       12        0     6066     6067     6053     6053     9545     9455     6053     9454
    19178       12       12       12        0     6065     6066     6052     6052     9540     9450     6052     9449
    19179       12       12       12        0     6054     6053     6067     6067     9453     9455     6067     9460
    19180       12       12       12        0     6053     6052     6066     6066     9448     9450     6066     9454
    19181       12       12       12        0     6074     6075     6061     6061     9592     9518     6061     9517
    19182       12       12       12        0     6062     6061     6075     6075     9516     9518     6075     9521
    19183       12       12       12        0     6055     6054     6068     6068     9459     9461     6068     9471
    19184       12       12       12        0     6067     6068     6054     6054     9549     9461     6054     9460
    19185       12       12       12        0     6058     6057     6071     6071     9483     9485     6071     9493
    19186       12       12       12        0     6070     6071     6057     6057     9569     9485     6057     9484
    19187       12       12       12        0     6057     6056     6070     6070     9476     9478     6070     9484
    19188       12       12       12        0     6069     6070     6056     6056     9561     9478     6056     9477
    19189       12       12       12        0     6059     6058     6072     6072     9492     9494     6072     9500
    19190       12       12       12        0     6071     6072     6058     6058     9575     9494     6058     9493
    19191       12       12       12        0     6056     6055     6069     6069     9470     9472     6069     9477
    19192       12       12       12        0     6068     6069     6055     6055     9553     9472     6055     9471
    19193       12       12       12        0     6060     6059     6073     6073     9499     9501     6073     9512
    19194       12       12       12        0     6072     6073     6059     6059     9583     9501     6059     9500
    19195       12       12       12        0     6061     6060     6074     6074     9511     9513     6074     9517
    19196       12       12       12        0     6073     6074     6060     6060     9587     9513     6060     9512
! ... 7 like lines cut
*set,_npilot,14305
_npilot49=_npilot
type,tid
mat ,cid
real,cid
tshape,pilo
en,19203,_npilot
tshape
csys,12
nrot,14305
csys,0
/com,*********** Create Remote Point "Internal Remote Point 3" ***********
! -------- Remote Point Used by "Joint" --------
*set,tid,15
*set,cid,14
et,cid,174
et,tid,170
keyo,tid,2,1               ! Don't fix the pilot node
keyo,tid,4,111111
keyo,cid,12,5              ! Bonded Contact 
keyo,cid,4,2               ! Rigid CERIG style load
keyo,cid,2,2               ! MPC style contact
eblock,10,,,57
(15i9)
    19204       14       14       14        0     5859     5900     5901     5901     8053     8381     5901     8054
    19205       14       14       14        0     5857     5898     5899     5899     8033     8368     5899     8034
    19206       14       14       14        0     5859     5901     5902     5902     8054     8388     5902     8055
    19207       14       14       14        0     5858     5899     5900     5900     8043     8375     5900     8044
    19208       14       14       14        0     5857     5899     5858     5858     8034     8043     5858     8032
    19209       14       14       14        0     5856     5896     5897     5897     8022     8356     5897     8023
    19210       14       14       14        0     5859     5902     5860     5860     8055     8064     5860     8052
    19211       14       14       14        0     5858     5900     5859     5859     8044     8053     5859     8042
    19212       14       14       14        0     5856     5898     5857     5857     8024     8033     5857     8021
    19213       14       14       14        0     5855     5895     5896     5896     8011     8349     5896     8012
    19214       14       14       14        0     5856     5897     5898     5898     8023     8363     5898     8024
    19215       14       14       14        0     5861     5903     5904     5904     8074     8400     5904     8075
    19216       14       14       14        0     5854     5894     5895     5895     8000     8342     5895     8001
    19217       14       14       14        0     5860     5902     5903     5903     8064     8394     5903     8065
    19218       14       14       14        0     5855     5896     5856     5856     8012     8022     5856     8010
    19219       14       14       14        0     5854     5895     5855     5855     8001     8011     5855     7998
    19220       14       14       14        0     5861     5904     5862     5862     8075     8084     5862     8073
    19221       14       14       14        0     5863     5907     5864     5864     8097     8106     5864     8095
    19222       14       14       14        0     5853     5892     5893     5893     7988     8331     5893     7989
    19223       14       14       14        0     5862     5906     5863     5863     8086     8096     5863     8083
! ... 38 like lines cut
*set,_npilot,14306
_npilot84=_npilot
type,tid
mat ,cid
real,cid
tshape,pilo
en,19261,_npilot
tshape
/com,*********** Create Remote Point "Internal Remote Point 4" ***********
! -------- Remote Point Used by "Joint" --------
*set,tid,17
*set,cid,16
et,cid,174
et,tid,170
keyo,tid,2,1               ! Don't fix the pilot node
keyo,tid,4,111111
keyo,cid,12,5              ! Bonded Contact 
keyo,cid,4,2               ! Rigid CERIG style load
keyo,cid,2,2               ! MPC style contact
eblock,10,,,887
(15i9)
    19262       16       16       16        0      725      791      889      889     4732     5095      889     4734
    19263       16       16       16        0      657      785      892      892     4285     5067      892     4286
    19264       16       16       16        0      647      790      810      810     4208     5089      810     4209
    19265       16       16       16        0      649     1000      778      778     4227     5029      778     4223
    19266       16       16       16        0      654      778      998      998     4259     5028      998     4263
    19267       16       16       16        0      701      756      905      905     4591     4912      905     4594
    19268       16       16       16        0      704      814      859      859     4609     5189      859     4610
    19269       16       16       16        0      661      672      830      830     4316     4399      830     4317
    19270       16       16       16        0      918      838      755      755     5276     4906      755     4908
    19271       16       16       16        0      660     1029      939      939     4315     5539      939     4314
    19272       16       16       16        0      730      982      764      764     4761     4959      764     4759
    19273       16       16       16        0      662      674      683      683     4323     4411      683     4324
    19274       16       16       16        0      663      827      965      965     4332     5239      965     4335
    19275       16       16       16        0      806      988      987      987     5164     5624      987     5163
    19276       16       16       16        0      681      798      762      762     4466     4944      762     4464
    19277       16       16       16        0      757      892      908      908     4915     5431      908     4917
    19278       16       16       16        0      650      827      759      759     4234     4928      759     4232
    19279       16       16       16        0      701      887      826      826     4593     5236      826     4592
    19280       16       16       16        0      681      767      798      798     4465     4973      798     4466
    19281       16       16       16        0      718      836      860      860     4691     5269      860     4693
! ... 868 like lines cut
*set,_npilot,14307
_npilot85=_npilot
type,tid
mat ,cid
real,cid
tshape,pilo
en,20149,_npilot
tshape
/com,*********** Create Joint "Revolute - Ground To Solid" ***********
/com,            Real Constant Set For Above Joint Is 18
! Joint Element Type Declaration and Definition using MPC184
*set,_jid,18
et,_jid,184
keyo,_jid,1,6           ! Revolute Joint
keyo,_jid,4,1           ! Z Axis is revolute axis
sectype,_jid, joint, revo, _wbjoint
secjoint,,12,12
mat,_jid
real,_jid
type,_jid
secnum,_jid
en,11555,,14305        ! body to ground joint
/com,*********** Create Joint "Joint" ***********
/com,            Real Constant Set For Above Joint Is 19
! Joint Element Type Declaration and Definition using MPC184
*set,_jid,19
et,_jid,184
keyo,_jid,1,13          ! Fixed Joint
sectype,_jid, joint, weld, _wbjoint
secjoint,,13,13
mat,_jid
real,_jid
type,_jid
secnum,_jid
en,11556,14306,14307      ! body to body joint
/com,*********** Define Pressure Using Surface Effect Elements "Pressure" ***********
et,20,154
eblock,10,,,35
(15i9)
    20150       20       20       20        0       36     1035       37       37     1275     1292       37     1262
    20151       20       20       20        0      106      107     1034     1034     1717     1749     1034     1733
    20152       20       20       20        0       39     1034       40       40     1307     1322       40     1301
    20153       20       20       20        0      101      102      124      124     1650     1657      124     1653
    20154       20       20       20        0       43     1036       56       56     1370     1438       56     1366
    20155       20       20       20        0      111     1036      110      110     1791     1784      110     1773
    20156       20       20       20        0       41     1032       42       42     1346     1364       42     1326
    20157       20       20       20        0       36      123     1035     1035     1263     1857     1035     1275
    20158       20       20       20        0       37     1035     1033     1033     1292     5688     1033     1291
    20159       20       20       20        0      105      106     1033     1033     1703     1732     1033     1716
    20160       20       20       20        0       37     1033       38       38     1291     1296       38     1278
    20161       20       20       20        0      102     1035      124      124     1665     1870      124     1657
    20162       20       20       20        0      111      112     1036     1036     1787     1800     1036     1791
    20163       20       20       20        0       55       57      112      112     1424     1440      112     1427
    20164       20       20       20        0      108      109     1032     1032     1750     1769     1032     1765
    20165       20       20       20        0      107      108     1034     1034     1734     1766     1034     1749
    20166       20       20       20        0      123      124     1035     1035     1853     1870     1035     1857
    20167       20       20       20        0       42     1032     1036     1036     1364     5683     1036     1365
    20168       20       20       20        0       39     1033     1034     1034     1306     5687     1034     1307
    20169       20       20       20        0      102      103     1035     1035     1656     1681     1035     1665
! ... 16 like lines cut
esel,s,type,,20
keyop,20,7,0                ! Use deformed area for application of load
esel,all
/com,*********** Define Pressure Using Surface Effect Elements "Pressure 2" ***********
et,21,154
eblock,10,,,35
(15i9)
    20185       21       21       21        0      164      633      632      632     2109     4112      632     2108
    20186       21       21       21        0      161      635      631      631     2075     4110      631     2074
    20187       21       21       21        0      234      634      632      632     2561     4113      632     2560
    20188       21       21       21        0      631      635      228      228     4110     2476      228     2475
    20189       21       21       21        0      180      634      181      181     2214     2226      181     2204
    20190       21       21       21        0      158      247      160      160     2031     2042      160     2028
    20191       21       21       21        0      162      633      163      163     2085     2094      163     2076
    20192       21       21       21        0      166      632      634      634     2132     4113      634     2133
    20193       21       21       21        0      179      181      236      236     2198     2216      236     2201
    20194       21       21       21        0      230      633      631      631     2501     4109      631     2500
    20195       21       21       21        0      164      632      165      165     2108     2120      165     2098
    20196       21       21       21        0      229      230      631      631     2477     2500      631     2490
    20197       21       21       21        0      232      632      633      633     2533     4112      633     2534
    20198       21       21       21        0      226      227      635      635     2428     2462      635     2441
    20199       21       21       21        0      234      235      634      634     2542     2576      634     2561
    20200       21       21       21        0      231      232      633      633     2504     2534      633     2511
    20201       21       21       21        0      160      635      161      161     2052     2075      161     2041
    20202       21       21       21        0      181      634      236      236     2226     2586      236     2216
    20203       21       21       21        0      226      635      248      248     2441     2653      248     2429
    20204       21       21       21        0      225      226      248      248     2422     2429      248     2425
! ... 16 like lines cut
esel,s,type,,21
keyop,21,7,0                ! Use deformed area for application of load
esel,all
esel,all
/com,*********** Define Rotational Velocity ***********
esel,none
esel,a,type,,1
cm,cm_rotvelcity69,elem
esel,all
/gst,on,on
fini
*get,_numnode,node,0,count
*get,_numelem,elem,0,count
*get, _MAXELEMNUM, elem, 0, NUM, MAX
*get, _MAXNODENUM, node, 0, NUM, MAX
*get, _MAXELEMTYPE, etyp, 0, NUM, MAX
*get, _MAXREALCONST, real, 0, NUM, MAX
/go
/wb,load,end               !  done creating loads
/com,--- Number of total nodes = %_numnode%
/com,--- Number of contact elements = 8656
/com,--- Number of spring elements = 0
/com,--- Number of bearing elements = 0
/com,--- Number of solid elements = 6844
/com,--- Number of condensed parts = 0
/com,--- Number of total elements = %_numelem%
*get,_wallbsol,active,,time,wall
/com,****************************************************************************
/com,*************************    SOLUTION       ********************************
/com,****************************************************************************
/solu
antype,0                   ! static analysis
_thickRatio=  0     ! Ratio of thick parts in the model
eqsl,sparse,,,,,1
cntr,print,1               ! print out contact info and also make no initial contact an error
dmpoption,emat,no             ! Don't combine emat file for DANSYS
dmpoption,esav,no             ! Don't combine esav file for DANSYS
nldiag,cont,iter           ! print out contact info each equilibrium iteration
rescontrol,define,last,last,,dele	   ! Program Controlled
/com,****************************************************
/com,******************* SOLVE FOR LS 1 OF 1 ****************
esel,s,type,,20
nsle
sf,all,pres,10.495
esel,s,type,,21
nsle
sf,all,pres,10.495
nsel,all
esel,all
cmom,cm_rotvelcity69,0.,250.,0.,0.000000,0.000000,0.000000
esel,all
/nopr
/gopr
autots,on                  ! Workbench Program Controlled automatic time stepping
nsub,5,20,1                ! due to presence of high frictional contact
time,1.
outres,erase
outres,all,none
outres,nsol,all,
outres,rsol,all
outres,eangl,all
outres,etmp,all
outres,veng,all
outres,strs,all,
outres,epel,all,
outres,eppl,all,
outres,cont,all,
/nopr
esel,s,type,,18
esel,a,type,,19
cm,_elmisc,elem
esel,all
/gopr
outres,misc,all,_elmisc
! *********** WB SOLVE COMMAND ***********
! check interactive state
*get,ANSINTER_,active,,int
*if,ANSINTER_,ne,0,then
/eof
*endif
solve
/com *************** Write FE CONNECTORS ********* 
CEWRITE,file,ce,,INTE
/com,****************************************************
/com,*************** FINISHED SOLVE FOR LS 1 *************
*get,_wallasol,active,,time,wall
/nopr
*get,_numnode,node,0,count
*get,_numelem,elem,0,count
*get, _MAXELEMNUM, elem, 0, NUM, MAX
*get, _MAXNODENUM, node, 0, NUM, MAX,,,INTERNAL
*get, _MAXELEMTYPE, etyp, 0, NUM, MAX
*get, _MAXREALCONST, real, 0, NUM, MAX
/gopr
/post1
xmlo,ENCODING,ISO-8859-1
xmlo,parm
/xml,parm,xml
fini
/gopr
*get,_walldone,active,,time,wall
_preptime=(_wallbsol-_wallstrt)*3600
_solvtime=(_wallasol-_wallbsol)*3600
_posttime=(_walldone-_wallasol)*3600
_totaltim=(_walldone-_wallstrt)*3600
*get,_dlbratio,active,0,solu,dlbr
*get,_combtime,active,0,solu,comb
*get,_ssmode,active,0,solu,ssmm
*get,_ndofs,active,0,solu,ndof
/com,--- Total number of nodes = %_numnode%
/com,--- Total number of elements = %_numelem%
/com,--- Element load balance ratio = %_dlbratio%
/com,--- Time to combine distributed files = %_combtime%
/com,--- Sparse memory mode = %_ssmode%
/com,--- Number of DOF = %_ndofs%
/wb,file,end               ! done with WB generated input
