/batch
/config,noeldb,1     ! force off writing results to database
*get,_wallstrt,active,,time,wall
! ANSYS input file written by Workbench version 2021 R2
! File used for geometry attach: C:\Users\CJ\PycharmProjects\DesignOptimization2021Fall\Project\Project 2 Ansys\Project 2_dp1_files\dp1\Geom\DM\Geom.agdb
/title,Project 2_dp1--Static Structural (B5)
! ****** Begin Custom Load Command Snippet ******
/COM, ACT Extensions:
/COM,     LSDYNA, 2021.1
/COM,     5f463412-bd3e-484b-87e7-cbc0a665e474, wbex
/COM,
! ****** End   Custom Load Command Snippet ******
*DIM,_wb_ProjectScratch_dir,string,248
_wb_ProjectScratch_dir(1) = 'C:\Users\CJ\PycharmProjects\DesignOptimization2021Fall\Project\Project 2 Ansys\_ProjectScratch\ScrC086\'
*DIM,_wb_SolverFiles_dir,string,248
_wb_SolverFiles_dir(1) = 'C:\Users\CJ\PycharmProjects\DesignOptimization2021Fall\Project\Project 2 Ansys\Project 2_dp1_files\dp1\SYS\MECH\'
*DIM,_wb_userfiles_dir,string,248
_wb_userfiles_dir(1) = 'C:\Users\CJ\PycharmProjects\DesignOptimization2021Fall\Project\Project 2 Ansys\Project 2_dp1_files\user_files\'
/com,--- Data in consistent NMM units. See Solving Units in the help system for more information.
/units,MPA
/nopr
/wb,file,start              !  signify a WB generated input file
/prep7
! Turn off shape checking because checks already performed inside WB mesher.
! See help system for more information.
SHPP,OFF,,NOWARN
/nolist
etcon,set             ! allow ANSYS to choose best KEYOP's for 180x elements, resets any applicable keyopt to MAPDL defaults
/com,*********** Nodes for the whole assembly ***********
nblock,3,,15550
(1i9,3e20.9e3)
        1     2.329371406E+01     1.772420365E+01    -8.693332437E+01
        2     8.693332437E+01     1.772420365E+01    -2.329371406E+01
        3     2.612562095E+01     1.772420365E+01    -8.612463022E+01
        4     2.892955188E+01     1.772420365E+01    -8.522371165E+01
        5     3.170250431E+01     1.772420365E+01    -8.423153341E+01
        6     3.444150891E+01     1.772420365E+01    -8.314915793E+01
        7     3.714363268E+01     1.772420365E+01    -8.197774424E+01
        8     3.980598212E+01     1.772420365E+01    -8.071854674E+01
        9     4.242570631E+01     1.772420365E+01    -7.937291379E+01
       10     4.500000000E+01     1.772420365E+01    -7.794228634E+01
       11     4.752610656E+01     1.772420365E+01    -7.642819634E+01
       12     5.000132097E+01     1.772420365E+01    -7.483226511E+01
       13     5.242299272E+01     1.772420365E+01    -7.315620161E+01
       14     5.478852861E+01     1.772420365E+01    -7.140180063E+01
       15     5.709539557E+01     1.772420365E+01    -6.957094080E+01
       16     5.934112336E+01     1.772420365E+01    -6.766558267E+01
       17     6.152330718E+01     1.772420365E+01    -6.568776654E+01
       18     6.363961031E+01     1.772420365E+01    -6.363961031E+01
       19     6.568776654E+01     1.772420365E+01    -6.152330718E+01
       20     6.766558267E+01     1.772420365E+01    -5.934112336E+01
! ... 14118 like lines cut
/com,*********** Nodes for all Remote Points ***********
nblock,3
(1i9,3e20.9e3)
    14138     0.000000000E+00    -2.749999985E+01     1.292034336E-17
    14139     0.000000000E+00    -2.749999985E+01     1.292034336E-17
    14140     0.000000000E+00     8.863484542E+00    -4.164336881E-18
    14141     0.000000000E+00     8.863484542E+00    -4.164336881E-18
-1
/wb,elem,start            !  set before creation of elements
/com,*********** Elements for Body 1 "Solid" ***********
et,1,187
eblock,19,solid,,4311
(19i9)
        1        1        1        1        0        0        0        0       10        0     2550     6663     7077     7173     7167    12225    14015    12229    12228
    14012    14137
        1        1        1        1        0        0        0        0       10        0     2551     6663     7173     7077     7088    12229    14015    12225    12227
    14058    14010
        1        1        1        1        0        0        0        0       10        0     2552     7055     7173     7077     7167    13941    14015    13938    13940
    14137    14012
        1        1        1        1        0        0        0        0       10        0     2553     6914     7055     7173     7077    13277    13941    13282    13279
    13938    14015
        1        1        1        1        0        0        0        0       10        0     2554     6914     7173     6979     7077    13282    13637    13276    13279
    14015    13634
        1        1        1        1        0        0        0        0       10        0     2555     6979     7077     7173     7088    13634    14015    13637    13635
    14010    14058
        1        1        1        1        0        0        0        0       10        0     2556     6662     6663     7173     7081    12215    12229    12221    12217
    12226    14039
        1        1        1        1        0        0        0        0       10        0     2557     6662     7173     6663     7088    12221    12229    12215    12218
    14058    12227
        1        1        1        1        0        0        0        0       10        0     2558     6914     6928     7173     7055    13274    13392    13282    13277
    13390    13941
        1        1        1        1        0        0        0        0       10        0     2559     6914     7173     6928     6979    13282    13392    13274    13276
    13637    13389
! ... 8603 like lines cut
!Material Id = {53D035FE-1FAF-47DF-88C7-91DA346BBD0F}
/com,*********** Elements for Body 2 "Solid" ***********
et,2,187
eblock,19,solid,,1316
(19i9)
        2        2        2        2        0        0        0        0       10        0        1       96      112       97     1067     1628     1633     1626     1631
     1803     1636
        2        2        2        2        0        0        0        0       10        0        2       96       97      977     1067     1626     1634     1630     1631
     1636     5611
        2        2        2        2        0        0        0        0       10        0        3      112      787     1067     1058     1797     5080     1803     1802
     5079     5733
        2        2        2        2        0        0        0        0       10        0        4       97      977     1067      993     1634     5611     1636     1635
     5609     5629
        2        2        2        2        0        0        0        0       10        0        5       97     1067      112      993     1636     1803     1633     1635
     5629     1799
        2        2        2        2        0        0        0        0       10        0        6      112     1067      787      993     1803     5080     1797     1799
     5629     5077
        2        2        2        2        0        0        0        0       10        0        7      787     1067     1031      993     5080     5681     5078     5077
     5629     5628
        2        2        2        2        0        0        0        0       10        0        8       96      111      112     1067     1627     1787     1628     1631
     1795     1803
        2        2        2        2        0        0        0        0       10        0        9       96      977      702     1067     1630     4599     1629     1631
     5611     4602
        2        2        2        2        0        0        0        0       10        0       10      977     1031     1067      993     5610     5681     5611     5609
     5628     5629
! ... 2613 like lines cut
!Material Id = {D32244CD-CFC6-417D-93F7-A411BB2FD2CE}
/com,*********** Elements for Body 3 "Solid" ***********
et,3,187
eblock,19,solid,,1233
(19i9)
        3        3        2        3        0        0        0        0       10        0     1317      231     1072      490     1089     2512     3860     2509     2515
     5743     3861
        3        3        2        3        0        0        0        0       10        0     1318      314      491     1089      548     3117     3866     3119     3118
     3862     3995
        3        3        2        3        0        0        0        0       10        0     1319      548     1089     1086     1088     3995     5756     3993     3994
     5757     5755
        3        3        2        3        0        0        0        0       10        0     1320      314      490     1089      491     3116     3861     3119     3117
     3858     3866
        3        3        2        3        0        0        0        0       10        0     1321      394      548     1089     1086     3539     3995     3543     3542
     3993     5756
        3        3        2        3        0        0        0        0       10        0     1322      314     1089      394      548     3119     3543     3115     3118
     3995     3539
        3        3        2        3        0        0        0        0       10        0     1323      264      375      397     1089     2769     3458     2771     2776
     3463     3555
        3        3        2        3        0        0        0        0       10        0     1324      375     1089      490     1072     3463     3861     3460     3462
     5743     3860
        3        3        2        3        0        0        0        0       10        0     1325      314      490      375     1089     3116     3460     3114     3119
     3861     3463
        3        3        2        3        0        0        0        0       10        0     1326      264      394     1089     1086     2770     3543     2776     2775
     3542     5756
! ... 2447 like lines cut
!Material Id = {5B354B16-160F-446C-A262-007170286292}
/wb,elem,end               !  done creating elements
/com,*********** Send User Defined Coordinate System(s) ***********
local,12,0,0.,-27.4999998509884,1.29203433560791e-017,-180.,-90.,-180.
local,13,0,0.,8.86348454162263,-4.16433688107631e-018,-90.,0.,90.
csys,0
toffst,273.15,  ! Temperature offset from absolute zero
/com,*********** Set Reference Temperature ***********
tref,22.
/wb,mat,start              !  starting to send materials
/com,*********** Send Materials ***********
Temperature = 'TEMP' ! Temperature
MP,DENS,1,7.2e-09,	! tonne mm^-3
MP,ALPX,1,1.1e-05,	! C^-1
MP,C,1,447000000,	! mm^2 s^-2 C^-1
MP,KXX,1,52,	! tonne mm s^-3 C^-1
MP,RSVX,1,9.6e-05,	! ohm mm
MP,EX,1,110000,	! tonne s^-2 mm^-1
MP,NUXY,1,0.28,
MP,MURX,1,10000,
MP,UVID,1,1e55ba3b-6eb7-440d-beac-2885ad80fc79
MP,UMID,1,f60bcced-8a07-4217-aedb-972d67ace671

Temperature = 'TEMP' ! Temperature
MP,DENS,2,7.85e-09,	! tonne mm^-3
MP,ALPX,2,1.2e-05,	! C^-1
MP,C,2,434000000,	! mm^2 s^-2 C^-1
MP,KXX,2,60.5,	! tonne mm s^-3 C^-1
MP,RSVX,2,0.00017,	! ohm mm
MP,EX,2,200000,	! tonne s^-2 mm^-1
MP,NUXY,2,0.3,
MP,MURX,2,10000,
MP,UVID,2,e010d15e-155b-4fae-ae6b-8d6bb5e3ee05
MP,UMID,2,59002a79-71c2-428e-906b-55d7dbee100e

Temperature = 'TEMP' ! Temperature
MP,DENS,3,7.85e-09,	! tonne mm^-3
MP,ALPX,3,1.2e-05,	! C^-1
MP,C,3,434000000,	! mm^2 s^-2 C^-1
MP,KXX,3,60.5,	! tonne mm s^-3 C^-1
MP,RSVX,3,0.00017,	! ohm mm
MP,EX,3,200000,	! tonne s^-2 mm^-1
MP,NUXY,3,0.3,
MP,MURX,3,10000,
MP,UVID,3,e010d15e-155b-4fae-ae6b-8d6bb5e3ee05
MP,UMID,3,59002a79-71c2-428e-906b-55d7dbee100e

/wb,mat,end                !  done sending materials
!************************* Model Summary ********************
!Solid,	Gray Cast Iron,	matid,	1
!Solid,	Structural Steel,	matid,	2
!Solid,	Structural Steel,	matid,	3
!************************* End Model Summary ********************
! get the diagonal of the bounding box. Needed later for other things
*get,_xmin,node,,mnloc,x
*get,_ymin,node,,mnloc,y
*get,_zmin,node,,mnloc,z
*get,_xmax,node,,mxloc,x
*get,_ymax,node,,mxloc,y
*get,_zmax,node,,mxloc,z
_ASMDIAG=(_xmax-_xmin)*(_xmax-_xmin)+(_ymax-_ymin)*(_ymax-_ymin)+(_zmax-_zmin)*(_zmax-_zmin)
_ASMDIAG=SQRT(_ASMDIAG)
/wb,contact,start          !  starting to send contact
/com,*********** Create Contact "Contact Region" ***********
/com,            Real Constant Set For Above Contact Is 5 & 4 
*set,tid,5
*set,cid,4
r,tid
r,cid
et,tid,170
et,cid,174
eblock,10,,,132
(15i9)
    11397        5        5        5        0     5984     6621     6526     6526     8861    11714     6526     8860
    11398        5        5        5        0     6019     6624     6527     6527     9108    11719     6527     9106
    11399        5        5        5        0     5892     6020     6529     6529     8185     9113     6529     8188
    11400        5        5        5        0     6020     6496     6528     6528     9111    11590     6528     9112
    11401        5        5        5        0     5892     6529     6442     6442     8188    11369     6442     8186
    11402        5        5        5        0     5983     6527     6624     6624     8854    11719     6624     8855
    11403        5        5        5        0     5982     6019     6528     6528     8845     9107     6528     8848
    11404        5        5        5        0     5892     6496     6020     6020     8187     9111     6020     8185
    11405        5        5        5        0     5983     6018     6527     6527     8852     9099     6527     8854
    11406        5        5        5        0     6019     6365     6624     6624     9105    11054     6624     9108
    11407        5        5        5        0     5983     6364     6018     6018     8853     9097     6018     8852
    11408        5        5        5        0     5982     6528     6496     6496     8848    11590     6496     8847
    11409        5        5        5        0     5988     6014     6360     6360     8887     9068     6360     8888
    11410        5        5        5        0     5982     6365     6019     6019     8846     9105     6019     8845
    11411        5        5        5        0     6018     6364     6623     6623     9097    11050     6623     9100
    11412        5        5        5        0     6017     6622     6525     6525     9093    11710     6525     9090
    11413        5        5        5        0     6018     6623     6526     6526     9100    11715     6526     9098
    11414        5        5        5        0     5894     6521     6013     6013     8205     9064     6013     8202
    11415        5        5        5        0     6017     6526     6621     6621     9091    11714     6621     9092
    11416        5        5        5        0     6016     6619     6362     6362     9085    11040     6362     9082
! ... 113 like lines cut
eblock,10,,,132
(15i9)
    11529        4        4        4        0     5984     6621     6526     6526     8861    11714     6526     8860
    11530        4        4        4        0     6019     6624     6527     6527     9108    11719     6527     9106
    11531        4        4        4        0     5892     6020     6529     6529     8185     9113     6529     8188
    11532        4        4        4        0     6020     6496     6528     6528     9111    11590     6528     9112
    11533        4        4        4        0     5892     6529     6442     6442     8188    11369     6442     8186
    11534        4        4        4        0     5983     6527     6624     6624     8854    11719     6624     8855
    11535        4        4        4        0     5982     6019     6528     6528     8845     9107     6528     8848
    11536        4        4        4        0     5892     6496     6020     6020     8187     9111     6020     8185
    11537        4        4        4        0     5983     6018     6527     6527     8852     9099     6527     8854
    11538        4        4        4        0     6019     6365     6624     6624     9105    11054     6624     9108
    11539        4        4        4        0     5983     6364     6018     6018     8853     9097     6018     8852
    11540        4        4        4        0     5982     6528     6496     6496     8848    11590     6496     8847
    11541        4        4        4        0     5988     6014     6360     6360     8887     9068     6360     8888
    11542        4        4        4        0     5982     6365     6019     6019     8846     9105     6019     8845
    11543        4        4        4        0     6018     6364     6623     6623     9097    11050     6623     9100
    11544        4        4        4        0     6017     6622     6525     6525     9093    11710     6525     9090
    11545        4        4        4        0     6018     6623     6526     6526     9100    11715     6526     9098
    11546        4        4        4        0     5894     6521     6013     6013     8205     9064     6013     8202
    11547        4        4        4        0     6017     6526     6621     6621     9091    11714     6621     9092
    11548        4        4        4        0     6016     6619     6362     6362     9085    11040     6362     9082
! ... 113 like lines cut
eblock,10,,,928
(15i9)
    11661        4        5        4        0      725      791      889      889     4732     5095      889     4734
    11662        4        5        4        0      657      785      892      892     4285     5067      892     4286
    11663        4        5        4        0      647      790      810      810     4208     5089      810     4209
    11664        4        5        4        0      649     1000      778      778     4227     5029      778     4223
    11665        4        5        4        0      654      778      998      998     4259     5028      998     4263
    11666        4        5        4        0      701      756      905      905     4591     4912      905     4594
    11667        4        5        4        0      704      814      859      859     4609     5189      859     4610
    11668        4        5        4        0      661      672      830      830     4316     4399      830     4317
    11669        4        5        4        0      918      838      755      755     5276     4906      755     4908
    11670        4        5        4        0      660     1029      939      939     4315     5539      939     4314
    11671        4        5        4        0      730      982      764      764     4761     4959      764     4759
    11672        4        5        4        0      662      674      683      683     4323     4411      683     4324
    11673        4        5        4        0      663      827      965      965     4332     5239      965     4335
    11674        4        5        4        0      806      988      987      987     5164     5624      987     5163
    11675        4        5        4        0      681      798      762      762     4466     4944      762     4464
    11676        4        5        4        0      757      892      908      908     4915     5431      908     4917
    11677        4        5        4        0      650      827      759      759     4234     4928      759     4232
    11678        4        5        4        0      701      887      826      826     4593     5236      826     4592
    11679        4        5        4        0      681      767      798      798     4465     4973      798     4466
    11680        4        5        4        0      718      836      860      860     4691     5269      860     4693
! ... 909 like lines cut
eblock,10,,,928
(15i9)
    12589        5        4        5        0      725      791      889      889     4732     5095      889     4734
    12590        5        4        5        0      657      785      892      892     4285     5067      892     4286
    12591        5        4        5        0      647      790      810      810     4208     5089      810     4209
    12592        5        4        5        0      649     1000      778      778     4227     5029      778     4223
    12593        5        4        5        0      654      778      998      998     4259     5028      998     4263
    12594        5        4        5        0      701      756      905      905     4591     4912      905     4594
    12595        5        4        5        0      704      814      859      859     4609     5189      859     4610
    12596        5        4        5        0      661      672      830      830     4316     4399      830     4317
    12597        5        4        5        0      918      838      755      755     5276     4906      755     4908
    12598        5        4        5        0      660     1029      939      939     4315     5539      939     4314
    12599        5        4        5        0      730      982      764      764     4761     4959      764     4759
    12600        5        4        5        0      662      674      683      683     4323     4411      683     4324
    12601        5        4        5        0      663      827      965      965     4332     5239      965     4335
    12602        5        4        5        0      806      988      987      987     5164     5624      987     5163
    12603        5        4        5        0      681      798      762      762     4466     4944      762     4464
    12604        5        4        5        0      757      892      908      908     4915     5431      908     4917
    12605        5        4        5        0      650      827      759      759     4234     4928      759     4232
    12606        5        4        5        0      701      887      826      826     4593     5236      826     4592
    12607        5        4        5        0      681      767      798      798     4465     4973      798     4466
    12608        5        4        5        0      718      836      860      860     4691     5269      860     4693
! ... 909 like lines cut
keyo,cid,8,2               ! auto create asymmetric contact (from Program Controlled setting)
keyo,cid,10,0              ! adjust contact stiffness each NR iteration (from Program Controlled setting)
keyo,cid,12,5              ! bonded always
keyo,cid,18,1              ! small sliding turned on by application
keyo,cid,2,0               ! augmented Lagrange (from Program Controlled setting)
keyo,cid,4,0               ! on Gauss point (from Program Controlled setting)
keyo,cid,9,1               ! ignore initial gaps/penetration
keyo,cid,7,0               ! No Prediction
rmod,tid,3,1.       ! FKN
rmod,tid,5,0.       ! ICONT
rmod,tid,6,0.       ! PINB
rmod,tid,10,0.      ! CNOF
rmod,tid,12,0.      ! FKT
rmod,tid,36,30      ! WB DSID
rmod,cid,3,1.       ! FKN
rmod,cid,5,0.       ! ICONT
rmod,cid,6,0.       ! PINB
rmod,cid,10,0.      ! CNOF
rmod,cid,12,0.      ! FKT
rmod,cid,36,30      ! WB DSID
/com,*********** Create Contact "Contact Region 2" ***********
/com,            Real Constant Set For Above Contact Is 7 & 6 
*set,tid,7
*set,cid,6
r,tid
r,cid
et,tid,170
et,cid,174
eblock,10,,,113
(15i9)
    13517        7        7        7        0     5775     5794     6391     6391     7279     7406     6391     7280
    13518        7        7        7        0     5775     6392     5794     5794     7281     7407     5794     7279
    13519        7        7        7        0     5776     5793     6392     6392     7284     7397     6392     7285
    13520        7        7        7        0     5789     6391     5794     5794     7367     7406     5794     7365
    13521        7        7        7        0     5774     6391     5789     5789     7274     7367     5789     7272
    13522        7        7        7        0     5776     6393     5793     5793     7286     7398     5793     7284
    13523        7        7        7        0     5777     5792     6393     6393     7289     7391     6393     7290
    13524        7        7        7        0     5774     5789     6405     6405     7272     7368     6405     7275
    13525        7        7        7        0     5778     5790     5791     5791     7294     7373     5791     7295
    13526        7        7        7        0     5793     5794     6392     6392     7396     7407     6392     7397
    13527        7        7        7        0     5792     5793     6393     6393     7390     7398     6393     7391
    13528        7        7        7        0     5778     5791     6394     6394     7295     7381     6394     7296
    13529        7        7        7        0     5777     5791     5792     5792     7288     7380     5792     7289
    13530        7        7        7        0     5778     6395     5790     5790     7297     7374     5790     7294
    13531        7        7        7        0     5779     5790     6395     6395     7302     7374     6395     7303
    13532        7        7        7        0     5777     6394     5791     5791     7291     7381     5791     7288
    13533        7        7        7        0     5779     5788     5790     5790     7301     7355     5790     7302
    13534        7        7        7        0     5779     6396     5788     5788     7304     7358     5788     7301
    13535        7        7        7        0     5788     6396     6431     6431     7358    11171     6431     7359
    13536        7        7        7        0     5821     6451     5962     5962     7602     8697     5962     7599
! ... 94 like lines cut
eblock,10,,,113
(15i9)
    13630        6        6        6        0     5775     5794     6391     6391     7279     7406     6391     7280
    13631        6        6        6        0     5775     6392     5794     5794     7281     7407     5794     7279
    13632        6        6        6        0     5776     5793     6392     6392     7284     7397     6392     7285
    13633        6        6        6        0     5789     6391     5794     5794     7367     7406     5794     7365
    13634        6        6        6        0     5774     6391     5789     5789     7274     7367     5789     7272
    13635        6        6        6        0     5776     6393     5793     5793     7286     7398     5793     7284
    13636        6        6        6        0     5777     5792     6393     6393     7289     7391     6393     7290
    13637        6        6        6        0     5774     5789     6405     6405     7272     7368     6405     7275
    13638        6        6        6        0     5778     5790     5791     5791     7294     7373     5791     7295
    13639        6        6        6        0     5793     5794     6392     6392     7396     7407     6392     7397
    13640        6        6        6        0     5792     5793     6393     6393     7390     7398     6393     7391
    13641        6        6        6        0     5778     5791     6394     6394     7295     7381     6394     7296
    13642        6        6        6        0     5777     5791     5792     5792     7288     7380     5792     7289
    13643        6        6        6        0     5778     6395     5790     5790     7297     7374     5790     7294
    13644        6        6        6        0     5779     5790     6395     6395     7302     7374     6395     7303
    13645        6        6        6        0     5777     6394     5791     5791     7291     7381     5791     7288
    13646        6        6        6        0     5779     5788     5790     5790     7301     7355     5790     7302
    13647        6        6        6        0     5779     6396     5788     5788     7304     7358     5788     7301
    13648        6        6        6        0     5788     6396     6431     6431     7358    11171     6431     7359
    13649        6        6        6        0     5821     6451     5962     5962     7602     8697     5962     7599
! ... 94 like lines cut
eblock,10,,,859
(15i9)
    13743        6        7        6        0      352      440      426      426     3346     3667      426     3345
    13744        6        7        6        0      325      454      623      623     3179     3767      623     3182
    13745        6        7        6        0      290      525      472      472     2963     3823      472     2961
    13746        6        7        6        0      381      482      532      532     3486     3842      532     3488
    13747        6        7        6        0      328      590      460      460     3195     3783      460     3193
    13748        6        7        6        0      274      296      287      287     2847     2938      287     2846
    13749        6        7        6        0      279      446      612      612     2886     3739      612     2887
    13750        6        7        6        0      327      457      625      625     3188     3775      625     3191
    13751        6        7        6        0      260      419      386      386     2743     3512      386     2742
    13752        6        7        6        0      282      417      365      365     2907     3417      365     2903
    13753        6        7        6        0      379      554      474      474     3479     3831      474     3478
    13754        6        7        6        0      262      439      376      376     2758     3464      376     2756
    13755        6        7        6        0      370      498      547      547     3435     3880      547     3438
    13756        6        7        6        0      314      548      394      394     3118     3539      394     3115
    13757        6        7        6        0      335      584      409      409     3233     3610      409     3230
    13758        6        7        6        0      266      563      610      610     2789     4017      610     2791
    13759        6        7        6        0      377      540      551      551     3469     3976      551     3470
    13760        6        7        6        0      250      462      489      489     2664     3790      489     2665
    13761        6        7        6        0      254      407      304      304     2693     3053      304     2691
    13762        6        7        6        0      277      472      400      400     2872     3568      400     2869
! ... 840 like lines cut
eblock,10,,,859
(15i9)
    14602        7        6        7        0      352      440      426      426     3346     3667      426     3345
    14603        7        6        7        0      325      454      623      623     3179     3767      623     3182
    14604        7        6        7        0      290      525      472      472     2963     3823      472     2961
    14605        7        6        7        0      381      482      532      532     3486     3842      532     3488
    14606        7        6        7        0      328      590      460      460     3195     3783      460     3193
    14607        7        6        7        0      274      296      287      287     2847     2938      287     2846
    14608        7        6        7        0      279      446      612      612     2886     3739      612     2887
    14609        7        6        7        0      327      457      625      625     3188     3775      625     3191
    14610        7        6        7        0      260      419      386      386     2743     3512      386     2742
    14611        7        6        7        0      282      417      365      365     2907     3417      365     2903
    14612        7        6        7        0      379      554      474      474     3479     3831      474     3478
    14613        7        6        7        0      262      439      376      376     2758     3464      376     2756
    14614        7        6        7        0      370      498      547      547     3435     3880      547     3438
    14615        7        6        7        0      314      548      394      394     3118     3539      394     3115
    14616        7        6        7        0      335      584      409      409     3233     3610      409     3230
    14617        7        6        7        0      266      563      610      610     2789     4017      610     2791
    14618        7        6        7        0      377      540      551      551     3469     3976      551     3470
    14619        7        6        7        0      250      462      489      489     2664     3790      489     2665
    14620        7        6        7        0      254      407      304      304     2693     3053      304     2691
    14621        7        6        7        0      277      472      400      400     2872     3568      400     2869
! ... 840 like lines cut
keyo,cid,8,2               ! auto create asymmetric contact (from Program Controlled setting)
keyo,cid,10,0              ! adjust contact stiffness each NR iteration (from Program Controlled setting)
keyo,cid,12,5              ! bonded always
keyo,cid,18,1              ! small sliding turned on by application
keyo,cid,2,0               ! augmented Lagrange (from Program Controlled setting)
keyo,cid,4,0               ! on Gauss point (from Program Controlled setting)
keyo,cid,9,1               ! ignore initial gaps/penetration
keyo,cid,7,0               ! No Prediction
rmod,tid,3,1.       ! FKN
rmod,tid,5,0.       ! ICONT
rmod,tid,6,0.       ! PINB
rmod,tid,10,0.      ! CNOF
rmod,tid,12,0.      ! FKT
rmod,tid,36,33      ! WB DSID
rmod,cid,3,1.       ! FKN
rmod,cid,5,0.       ! ICONT
rmod,cid,6,0.       ! PINB
rmod,cid,10,0.      ! CNOF
rmod,cid,12,0.      ! FKT
rmod,cid,36,33      ! WB DSID
/com,*********** Create Contact "Frictional - Solid To Solid" ***********
/com,            Real Constant Set For Above Contact Is 9 & 8 
*set,tid,9
*set,cid,8
r,tid
r,cid
et,tid,170
et,cid,174
eblock,10,,,66
(15i9)
    15461        9        9        9        0     6809     6818     6811     6811    12687    12703     6811    12685
    15462        9        9        9        0     6811     6818     6816     6816    12703    12723     6816    12702
    15463        9        9        9        0     6804     6809     6811     6811    12643    12685     6811    12644
    15464        9        9        9        0     6806     6811     6816     6816    12657    12702     6816    12659
    15465        9        9        9        0     5878     6275     5930     5930     8044     8450     5930     8043
    15466        9        9        9        0     6807     6810     6812     6812    12667    12693     6812    12668
    15467        9        9        9        0     6805     6810     6808     6808    12651    12676     6808    12650
    15468        9        9        9        0     6808     6815     6809     6809    12678    12686     6809    12675
    15469        9        9        9        0     6804     6811     6813     6813    12644    12701     6813    12645
    15470        9        9        9        0     6806     6813     6811     6811    12658    12701     6811    12657
    15471        9        9        9        0     5893     6806     6496     6496     8194    11593     6496     8192
    15472        9        9        9        0     6805     6812     6810     6810    12652    12693     6810    12651
    15473        9        9        9        0     6807     6817     6810     6810    12669    12695     6810    12667
    15474        9        9        9        0     6810     6817     6814     6814    12695    12716     6814    12694
    15475        9        9        9        0     6808     6810     6814     6814    12676    12694     6814    12677
    15476        9        9        9        0     5894     6497     5930     5930     8204     8452     5930     8201
    15477        9        9        9        0     5882     5893     6280     6280     8086     8190     6280     8088
    15478        9        9        9        0     5982     6806     6365     6365     8850    11056     6365     8846
    15479        9        9        9        0     5982     6496     6806     6806     8847    11593     6806     8850
    15480        9        9        9        0     5880     6804     6278     6278     8071    10631     6278     8065
! ... 47 like lines cut
eblock,10,,,66
(15i9)
    15527        8        8        8        0     6809     6818     6811     6811    12687    12703     6811    12685
    15528        8        8        8        0     6811     6818     6816     6816    12703    12723     6816    12702
    15529        8        8        8        0     6804     6809     6811     6811    12643    12685     6811    12644
    15530        8        8        8        0     6806     6811     6816     6816    12657    12702     6816    12659
    15531        8        8        8        0     5878     6275     5930     5930     8044     8450     5930     8043
    15532        8        8        8        0     6807     6810     6812     6812    12667    12693     6812    12668
    15533        8        8        8        0     6805     6810     6808     6808    12651    12676     6808    12650
    15534        8        8        8        0     6808     6815     6809     6809    12678    12686     6809    12675
    15535        8        8        8        0     6804     6811     6813     6813    12644    12701     6813    12645
    15536        8        8        8        0     6806     6813     6811     6811    12658    12701     6811    12657
    15537        8        8        8        0     5893     6806     6496     6496     8194    11593     6496     8192
    15538        8        8        8        0     6805     6812     6810     6810    12652    12693     6810    12651
    15539        8        8        8        0     6807     6817     6810     6810    12669    12695     6810    12667
    15540        8        8        8        0     6810     6817     6814     6814    12695    12716     6814    12694
    15541        8        8        8        0     6808     6810     6814     6814    12676    12694     6814    12677
    15542        8        8        8        0     5894     6497     5930     5930     8204     8452     5930     8201
    15543        8        8        8        0     5882     5893     6280     6280     8086     8190     6280     8088
    15544        8        8        8        0     5982     6806     6365     6365     8850    11056     6365     8846
    15545        8        8        8        0     5982     6496     6806     6806     8847    11593     6806     8850
    15546        8        8        8        0     5880     6804     6278     6278     8071    10631     6278     8065
! ... 47 like lines cut
eblock,10,,,887
(15i9)
    15593        8        9        8        0      725      791      889      889     4732     5095      889     4734
    15594        8        9        8        0      657      785      892      892     4285     5067      892     4286
    15595        8        9        8        0      647      790      810      810     4208     5089      810     4209
    15596        8        9        8        0      649     1000      778      778     4227     5029      778     4223
    15597        8        9        8        0      654      778      998      998     4259     5028      998     4263
    15598        8        9        8        0      701      756      905      905     4591     4912      905     4594
    15599        8        9        8        0      704      814      859      859     4609     5189      859     4610
    15600        8        9        8        0      661      672      830      830     4316     4399      830     4317
    15601        8        9        8        0      918      838      755      755     5276     4906      755     4908
    15602        8        9        8        0      660     1029      939      939     4315     5539      939     4314
    15603        8        9        8        0      730      982      764      764     4761     4959      764     4759
    15604        8        9        8        0      662      674      683      683     4323     4411      683     4324
    15605        8        9        8        0      663      827      965      965     4332     5239      965     4335
    15606        8        9        8        0      806      988      987      987     5164     5624      987     5163
    15607        8        9        8        0      681      798      762      762     4466     4944      762     4464
    15608        8        9        8        0      757      892      908      908     4915     5431      908     4917
    15609        8        9        8        0      650      827      759      759     4234     4928      759     4232
    15610        8        9        8        0      701      887      826      826     4593     5236      826     4592
    15611        8        9        8        0      681      767      798      798     4465     4973      798     4466
    15612        8        9        8        0      718      836      860      860     4691     5269      860     4693
! ... 868 like lines cut
eblock,10,,,887
(15i9)
    16480        9        8        9        0      725      791      889      889     4732     5095      889     4734
    16481        9        8        9        0      657      785      892      892     4285     5067      892     4286
    16482        9        8        9        0      647      790      810      810     4208     5089      810     4209
    16483        9        8        9        0      649     1000      778      778     4227     5029      778     4223
    16484        9        8        9        0      654      778      998      998     4259     5028      998     4263
    16485        9        8        9        0      701      756      905      905     4591     4912      905     4594
    16486        9        8        9        0      704      814      859      859     4609     5189      859     4610
    16487        9        8        9        0      661      672      830      830     4316     4399      830     4317
    16488        9        8        9        0      918      838      755      755     5276     4906      755     4908
    16489        9        8        9        0      660     1029      939      939     4315     5539      939     4314
    16490        9        8        9        0      730      982      764      764     4761     4959      764     4759
    16491        9        8        9        0      662      674      683      683     4323     4411      683     4324
    16492        9        8        9        0      663      827      965      965     4332     5239      965     4335
    16493        9        8        9        0      806      988      987      987     5164     5624      987     5163
    16494        9        8        9        0      681      798      762      762     4466     4944      762     4464
    16495        9        8        9        0      757      892      908      908     4915     5431      908     4917
    16496        9        8        9        0      650      827      759      759     4234     4928      759     4232
    16497        9        8        9        0      701      887      826      826     4593     5236      826     4592
    16498        9        8        9        0      681      767      798      798     4465     4973      798     4466
    16499        9        8        9        0      718      836      860      860     4691     5269      860     4693
! ... 868 like lines cut
keyo,cid,8,2               ! auto create asymmetric contact (from Program Controlled setting)
keyo,cid,10,0              ! adjust contact stiffness each NR iteration (from Program Controlled setting)
keyo,cid,12,0              ! standard contact
mp,mu,cid,0.22      ! unitless
keyo,cid,18,1              ! small sliding turned on by application
keyo,cid,2,0               ! augmented Lagrange (from Program Controlled setting)
keyo,cid,4,0               ! on Gauss point (from Program Controlled setting)
keyo,cid,9,0               ! use real geometry with stepped effects
keyo,cid,7,0               ! No Prediction
rmod,tid,3,1.       ! FKN
rmod,tid,5,0.       ! ICONT
rmod,tid,6,0.       ! PINB
rmod,tid,10,0.      ! CNOF
rmod,tid,12,0.      ! FKT
rmod,tid,36,58      ! WB DSID
rmod,cid,3,1.       ! FKN
rmod,cid,5,0.       ! ICONT
rmod,cid,6,0.       ! PINB
rmod,cid,10,0.      ! CNOF
rmod,cid,12,0.      ! FKT
rmod,cid,36,58      ! WB DSID
/com,*********** Create Contact "Frictional - Solid To Solid" ***********
/com,            Real Constant Set For Above Contact Is 11 & 10 
*set,tid,11
*set,cid,10
r,tid
r,cid
et,tid,170
et,cid,174
eblock,10,,,52
(15i9)
    17367       11       11       11        0     5793     6820     6822     6822     7401    12742     6822     7402
    17368       11       11       11        0     6441     6450     6821     6821    11364    11419     6821    11365
    17369       11       11       11        0     5793     6822     5794     5794     7402     7410     5794     7396
    17370       11       11       11        0     5937     6822     6321     6321     8510    10849     6321     8506
    17371       11       11       11        0     6819     6826     6823     6823    12737    12764     6823    12735
    17372       11       11       11        0     6820     6827     6825     6825    12745    12777     6825    12744
    17373       11       11       11        0     6316     6551     6821     6821    10827    11790     6821    10829
    17374       11       11       11        0     5937     6451     6822     6822     8507    11423     6822     8510
    17375       11       11       11        0     6432     6822     6451     6451    11313    11423     6451    11312
    17376       11       11       11        0     6819     6824     6820     6820    12736    12743     6820    12734
    17377       11       11       11        0     5931     6316     6821     6821     8462    10829     6821     8466
    17378       11       11       11        0     5789     6822     5822     5822     7370     7608     5822     7366
    17379       11       11       11        0     6317     6552     6823     6823    10831    11794     6823    10833
    17380       11       11       11        0     5931     6821     6450     6450     8466    11419     6450     8463
    17381       11       11       11        0     5859     6441     6821     6821     7869    11365     6821     7870
    17382       11       11       11        0     5792     6820     5793     5793     7394     7401     5793     7390
    17383       11       11       11        0     6321     6822     6558     6558    10849    11812     6558    10848
    17384       11       11       11        0     5788     5859     6821     6821     7356     7870     6821     7362
    17385       11       11       11        0     5822     6822     6432     6432     7608    11313     6432     7607
    17386       11       11       11        0     5792     6819     6820     6820     7393    12734     6820     7394
! ... 33 like lines cut
eblock,10,,,52
(15i9)
    17419       10       10       10        0     5793     6820     6822     6822     7401    12742     6822     7402
    17420       10       10       10        0     6441     6450     6821     6821    11364    11419     6821    11365
    17421       10       10       10        0     5793     6822     5794     5794     7402     7410     5794     7396
    17422       10       10       10        0     5937     6822     6321     6321     8510    10849     6321     8506
    17423       10       10       10        0     6819     6826     6823     6823    12737    12764     6823    12735
    17424       10       10       10        0     6820     6827     6825     6825    12745    12777     6825    12744
    17425       10       10       10        0     6316     6551     6821     6821    10827    11790     6821    10829
    17426       10       10       10        0     5937     6451     6822     6822     8507    11423     6822     8510
    17427       10       10       10        0     6432     6822     6451     6451    11313    11423     6451    11312
    17428       10       10       10        0     6819     6824     6820     6820    12736    12743     6820    12734
    17429       10       10       10        0     5931     6316     6821     6821     8462    10829     6821     8466
    17430       10       10       10        0     5789     6822     5822     5822     7370     7608     5822     7366
    17431       10       10       10        0     6317     6552     6823     6823    10831    11794     6823    10833
    17432       10       10       10        0     5931     6821     6450     6450     8466    11419     6450     8463
    17433       10       10       10        0     5859     6441     6821     6821     7869    11365     6821     7870
    17434       10       10       10        0     5792     6820     5793     5793     7394     7401     5793     7390
    17435       10       10       10        0     6321     6822     6558     6558    10849    11812     6558    10848
    17436       10       10       10        0     5788     5859     6821     6821     7356     7870     6821     7362
    17437       10       10       10        0     5822     6822     6432     6432     7608    11313     6432     7607
    17438       10       10       10        0     5792     6819     6820     6820     7393    12734     6820     7394
! ... 33 like lines cut
eblock,10,,,859
(15i9)
    17471       10       11       10        0      352      440      426      426     3346     3667      426     3345
    17472       10       11       10        0      325      454      623      623     3179     3767      623     3182
    17473       10       11       10        0      290      525      472      472     2963     3823      472     2961
    17474       10       11       10        0      381      482      532      532     3486     3842      532     3488
    17475       10       11       10        0      328      590      460      460     3195     3783      460     3193
    17476       10       11       10        0      274      296      287      287     2847     2938      287     2846
    17477       10       11       10        0      279      446      612      612     2886     3739      612     2887
    17478       10       11       10        0      327      457      625      625     3188     3775      625     3191
    17479       10       11       10        0      260      419      386      386     2743     3512      386     2742
    17480       10       11       10        0      282      417      365      365     2907     3417      365     2903
    17481       10       11       10        0      379      554      474      474     3479     3831      474     3478
    17482       10       11       10        0      262      439      376      376     2758     3464      376     2756
    17483       10       11       10        0      370      498      547      547     3435     3880      547     3438
    17484       10       11       10        0      314      548      394      394     3118     3539      394     3115
    17485       10       11       10        0      335      584      409      409     3233     3610      409     3230
    17486       10       11       10        0      266      563      610      610     2789     4017      610     2791
    17487       10       11       10        0      377      540      551      551     3469     3976      551     3470
    17488       10       11       10        0      250      462      489      489     2664     3790      489     2665
    17489       10       11       10        0      254      407      304      304     2693     3053      304     2691
    17490       10       11       10        0      277      472      400      400     2872     3568      400     2869
! ... 840 like lines cut
eblock,10,,,859
(15i9)
    18330       11       10       11        0      352      440      426      426     3346     3667      426     3345
    18331       11       10       11        0      325      454      623      623     3179     3767      623     3182
    18332       11       10       11        0      290      525      472      472     2963     3823      472     2961
    18333       11       10       11        0      381      482      532      532     3486     3842      532     3488
    18334       11       10       11        0      328      590      460      460     3195     3783      460     3193
    18335       11       10       11        0      274      296      287      287     2847     2938      287     2846
    18336       11       10       11        0      279      446      612      612     2886     3739      612     2887
    18337       11       10       11        0      327      457      625      625     3188     3775      625     3191
    18338       11       10       11        0      260      419      386      386     2743     3512      386     2742
    18339       11       10       11        0      282      417      365      365     2907     3417      365     2903
    18340       11       10       11        0      379      554      474      474     3479     3831      474     3478
    18341       11       10       11        0      262      439      376      376     2758     3464      376     2756
    18342       11       10       11        0      370      498      547      547     3435     3880      547     3438
    18343       11       10       11        0      314      548      394      394     3118     3539      394     3115
    18344       11       10       11        0      335      584      409      409     3233     3610      409     3230
    18345       11       10       11        0      266      563      610      610     2789     4017      610     2791
    18346       11       10       11        0      377      540      551      551     3469     3976      551     3470
    18347       11       10       11        0      250      462      489      489     2664     3790      489     2665
    18348       11       10       11        0      254      407      304      304     2693     3053      304     2691
    18349       11       10       11        0      277      472      400      400     2872     3568      400     2869
! ... 840 like lines cut
keyo,cid,8,2               ! auto create asymmetric contact (from Program Controlled setting)
keyo,cid,10,0              ! adjust contact stiffness each NR iteration (from Program Controlled setting)
keyo,cid,12,0              ! standard contact
mp,mu,cid,0.22      ! unitless
keyo,cid,18,1              ! small sliding turned on by application
keyo,cid,2,0               ! augmented Lagrange (from Program Controlled setting)
keyo,cid,4,0               ! on Gauss point (from Program Controlled setting)
keyo,cid,9,0               ! use real geometry with stepped effects
keyo,cid,7,0               ! No Prediction
rmod,tid,3,1.       ! FKN
rmod,tid,5,0.       ! ICONT
rmod,tid,6,0.       ! PINB
rmod,tid,10,0.      ! CNOF
rmod,tid,12,0.      ! FKT
rmod,tid,36,61      ! WB DSID
rmod,cid,3,1.       ! FKN
rmod,cid,5,0.       ! ICONT
rmod,cid,6,0.       ! PINB
rmod,cid,10,0.      ! CNOF
rmod,cid,12,0.      ! FKT
rmod,cid,36,61      ! WB DSID
nsel,all
esel,all
/wb,contact,end            !  done creating contacts
/golist
/wb,load,start             !  starting to send loads
/com,******* Constant Zero Displacement X *******
CMBLOCK,_DISPZEROUX,NODE,     4132
(8i10)
         1         2         3         4         5         6         7         8
         9        10        11        12        13        14        15        16
        17        18        19        20        21        22        23        24
        25        26        27        28        29        30        31        32
        33        34        35        36        37        38        39        40
        41        42        43        44        45        46        47        48
        49        50        51        52        53        54        55        56
        57        58        59        60        61        62        63        64
        65        66        67        68        69        70        71        72
        73        74        75        76        77        78        79        80
        81        82        83        84        85        86        87        88
        89        90        91        92        93        94        95        96
        97        98        99       100       101       102       103       104
       105       106       107       108       109       110       111       112
       113       114       115       116       117       118       119       120
       121       122       123       124       125       126       127       128
       129       130       131       132       133       134       135       136
       137       138       139       140       141       142       143       144
       145       146       147       148       149       150       151       152
       153       154       155       156       157       158       159       160
! ... 497 like lines cut
cmsel,s,_DISPZEROUX
d,all,ux,0
nsel,all
/com,******* Constant Zero Displacement Z *******
CMBLOCK,_DISPZEROUZ,NODE,     4132
(8i10)
         1         2         3         4         5         6         7         8
         9        10        11        12        13        14        15        16
        17        18        19        20        21        22        23        24
        25        26        27        28        29        30        31        32
        33        34        35        36        37        38        39        40
        41        42        43        44        45        46        47        48
        49        50        51        52        53        54        55        56
        57        58        59        60        61        62        63        64
        65        66        67        68        69        70        71        72
        73        74        75        76        77        78        79        80
        81        82        83        84        85        86        87        88
        89        90        91        92        93        94        95        96
        97        98        99       100       101       102       103       104
       105       106       107       108       109       110       111       112
       113       114       115       116       117       118       119       120
       121       122       123       124       125       126       127       128
       129       130       131       132       133       134       135       136
       137       138       139       140       141       142       143       144
       145       146       147       148       149       150       151       152
       153       154       155       156       157       158       159       160
! ... 497 like lines cut
cmsel,s,_DISPZEROUZ
d,all,uz,0
nsel,all
/com,*********** Create Remote Point "Internal Remote Point 2" ***********
! -------- Remote Point Used by "Revolute - Ground To Solid" --------
*set,tid,13
*set,cid,12
et,cid,174
et,tid,170
keyo,tid,2,1               ! Don't fix the pilot node
keyo,tid,4,111111
keyo,cid,12,5              ! Bonded Contact 
keyo,cid,4,2               ! Rigid CERIG style load
keyo,cid,2,2               ! MPC style contact
eblock,10,,,26
(15i9)
    19189       12       12       12        0     6047     6048     6034     6034     9296     9211     6034     9210
    19190       12       12       12        0     6056     6057     6043     6043     9351     9277     6043     9276
    19191       12       12       12        0     6052     6053     6039     6039     9325     9246     6039     9245
    19192       12       12       12        0     6046     6047     6033     6033     9291     9201     6033     9200
    19193       12       12       12        0     6057     6058     6044     6044     9356     9282     6044     9281
    19194       12       12       12        0     6058     6046     6033     6033     9292     9200     6033     9202
    19195       12       12       12        0     6038     6037     6051     6051     9227     9229     6051     9239
    19196       12       12       12        0     6049     6050     6036     6036     9309     9223     6036     9222
    19197       12       12       12        0     6035     6034     6048     6048     9209     9211     6048     9217
    19198       12       12       12        0     6055     6056     6042     6042     9347     9265     6042     9264
    19199       12       12       12        0     6037     6036     6050     6050     9221     9223     6050     9228
    19200       12       12       12        0     6040     6039     6053     6053     9244     9246     6053     9251
    19201       12       12       12        0     6051     6052     6038     6038     9317     9240     6038     9239
    19202       12       12       12        0     6050     6051     6037     6037     9313     9229     6037     9228
    19203       12       12       12        0     6048     6049     6035     6035     9304     9218     6035     9217
    19204       12       12       12        0     6043     6042     6056     6056     9263     9265     6056     9276
    19205       12       12       12        0     6039     6038     6052     6052     9238     9240     6052     9245
    19206       12       12       12        0     6044     6043     6057     6057     9275     9277     6057     9281
    19207       12       12       12        0     6054     6055     6041     6041     9339     9258     6041     9257
    19208       12       12       12        0     6033     6045     6058     6058     9199     9285     6058     9202
! ... 7 like lines cut
*set,_npilot,14139
_npilot49=_npilot
type,tid
mat ,cid
real,cid
tshape,pilo
en,19215,_npilot
tshape
csys,12
nrot,14139
csys,0
/com,*********** Create Remote Point "Internal Remote Point 3" ***********
! -------- Remote Point Used by "Joint" --------
*set,tid,15
*set,cid,14
et,cid,174
et,tid,170
keyo,tid,2,1               ! Don't fix the pilot node
keyo,tid,4,111111
keyo,cid,12,5              ! Bonded Contact 
keyo,cid,4,2               ! Rigid CERIG style load
keyo,cid,2,2               ! MPC style contact
eblock,10,,,110
(15i9)
    19216       14       14       14        0     5879     6277     6634     6634     8055    10619     6634     8056
    19217       14       14       14        0     6278     5881     6635     6635     8077     8079     6635    10626
    19218       14       14       14        0     5878     6276     6636     6636     8045    10613     6636     8046
    19219       14       14       14        0     6279     5882     6637     6637     8087     8089     6637    10634
    19220       14       14       14        0     5877     6275     6182     6182     8037    10238     6182     8036
    19221       14       14       14        0     6280     5883     6188     6188     8102     8101     6188    10268
    19222       14       14       14        0     6281     5884     6189     6189     8109     8108     6189    10274
    19223       14       14       14        0     5876     6306     6181     6181     8027    10234     6181     8025
    19224       14       14       14        0     6282     5885     6190     6190     8119     8118     6190    10279
    19225       14       14       14        0     5875     6305     6180     6180     8016    10229     6180     8014
    19226       14       14       14        0     6283     5886     6191     6191     8128     8127     6191    10284
    19227       14       14       14        0     5874     6304     6179     6179     8006    10224     6179     8004
    19228       14       14       14        0     6284     5887     6192     6192     8137     8136     6192    10289
    19229       14       14       14        0     5873     6303     6178     6178     7997    10220     6178     7995
    19230       14       14       14        0     6285     5888     6193     6193     8146     8145     6193    10293
    19231       14       14       14        0     5872     6302     6177     6177     7986    10215     6177     7984
    19232       14       14       14        0     6286     5889     6194     6194     8155     8154     6194    10298
    19233       14       14       14        0     5871     6301     6176     6176     7976    10209     6176     7974
    19234       14       14       14        0     6287     5890     6195     6195     8165     8164     6195    10303
    19235       14       14       14        0     5870     6300     6175     6175     7969    10205     6175     7967
! ... 91 like lines cut
*set,_npilot,14140
_npilot85=_npilot
type,tid
mat ,cid
real,cid
tshape,pilo
en,19326,_npilot
tshape
csys,13
nrot,14140
csys,0
/com,*********** Create Remote Point "Internal Remote Point 4" ***********
! -------- Remote Point Used by "Joint" --------
*set,tid,17
*set,cid,16
et,cid,174
et,tid,170
keyo,tid,2,1               ! Don't fix the pilot node
keyo,tid,4,111111
keyo,cid,12,5              ! Bonded Contact 
keyo,cid,4,2               ! Rigid CERIG style load
keyo,cid,2,2               ! MPC style contact
eblock,10,,,41
(15i9)
    19327       16       16       16        0        3        1       34       34     1090     1091       34     1099
    19328       16       16       16        0        4        3       34       34     1098     1099       34     1103
    19329       16       16       16        0        5        4       36       36     1102     1104       36     1110
    19330       16       16       16        0        6        5       36       36     1109     1110       36     1114
    19331       16       16       16        0        7        6       36       36     1113     1114       36     1118
    19332       16       16       16        0        8        7       37       37     1117     1119       37     1123
    19333       16       16       16        0        9        8       37       37     1122     1123       37     1127
    19334       16       16       16        0       10        9       37       37     1126     1127       37     1131
    19335       16       16       16        0       11       10       37       37     1130     1131       37     1135
    19336       16       16       16        0       12       11       38       38     1134     1136       38     1141
    19337       16       16       16        0       13       12       38       38     1140     1141       38     1147
    19338       16       16       16        0       14       13       38       38     1146     1147       38     1153
    19339       16       16       16        0       15       14       39       39     1152     1154       39     1159
    19340       16       16       16        0       16       15       39       39     1158     1159       39     1163
    19341       16       16       16        0       17       16       39       39     1162     1163       39     1167
    19342       16       16       16        0       18       17       39       39     1166     1167       39     1173
    19343       16       16       16        0       19       18       40       40     1172     1174       40     1180
    19344       16       16       16        0       20       19       40       40     1179     1180       40     1185
    19345       16       16       16        0       21       20       40       40     1184     1185       40     1189
    19346       16       16       16        0       22       21       40       40     1188     1189       40     1193
! ... 22 like lines cut
*set,_npilot,14141
_npilot86=_npilot
type,tid
mat ,cid
real,cid
tshape,pilo
en,19368,_npilot
tshape
csys,13
nrot,14141
csys,0
/com,*********** Create Joint "Revolute - Ground To Solid" ***********
/com,            Real Constant Set For Above Joint Is 18
! Joint Element Type Declaration and Definition using MPC184
*set,_jid,18
et,_jid,184
keyo,_jid,1,6           ! Revolute Joint
keyo,_jid,4,1           ! Z Axis is revolute axis
sectype,_jid, joint, revo, _wbjoint
secjoint,,12,12
mat,_jid
real,_jid
type,_jid
secnum,_jid
en,11391,,14139        ! body to ground joint
/com,*********** Create Joint "Joint" ***********
/com,            Real Constant Set For Above Joint Is 19
! Joint Element Type Declaration and Definition using MPC184
*set,_jid,19
et,_jid,184
keyo,_jid,1,6           ! Revolute Joint
keyo,_jid,4,1           ! Z Axis is revolute axis
sectype,_jid, joint, revo, _wbjoint
secjoint,,13,13
mat,_jid
real,_jid
type,_jid
secnum,_jid
en,11392,14140,14141      ! body to body joint
/com,*********** Define Pressure Using Surface Effect Elements "Pressure" ***********
et,20,154
eblock,10,,,35
(15i9)
    19369       20       20       20        0       36     1035       37       37     1275     1292       37     1262
    19370       20       20       20        0      106      107     1034     1034     1717     1749     1034     1733
    19371       20       20       20        0       39     1034       40       40     1307     1322       40     1301
    19372       20       20       20        0      101      102      124      124     1650     1657      124     1653
    19373       20       20       20        0       43     1036       56       56     1370     1438       56     1366
    19374       20       20       20        0      111     1036      110      110     1791     1784      110     1773
    19375       20       20       20        0       41     1032       42       42     1346     1364       42     1326
    19376       20       20       20        0       36      123     1035     1035     1263     1857     1035     1275
    19377       20       20       20        0       37     1035     1033     1033     1292     5688     1033     1291
    19378       20       20       20        0      105      106     1033     1033     1703     1732     1033     1716
    19379       20       20       20        0       37     1033       38       38     1291     1296       38     1278
    19380       20       20       20        0      102     1035      124      124     1665     1870      124     1657
    19381       20       20       20        0      111      112     1036     1036     1787     1800     1036     1791
    19382       20       20       20        0       55       57      112      112     1424     1440      112     1427
    19383       20       20       20        0      108      109     1032     1032     1750     1769     1032     1765
    19384       20       20       20        0      107      108     1034     1034     1734     1766     1034     1749
    19385       20       20       20        0      123      124     1035     1035     1853     1870     1035     1857
    19386       20       20       20        0       42     1032     1036     1036     1364     5683     1036     1365
    19387       20       20       20        0       39     1033     1034     1034     1306     5687     1034     1307
    19388       20       20       20        0      102      103     1035     1035     1656     1681     1035     1665
! ... 16 like lines cut
esel,s,type,,20
keyop,20,7,0                ! Use deformed area for application of load
esel,all
/com,*********** Define Pressure Using Surface Effect Elements "Pressure 2" ***********
et,21,154
eblock,10,,,35
(15i9)
    19404       21       21       21        0      164      633      632      632     2109     4112      632     2108
    19405       21       21       21        0      161      635      631      631     2075     4110      631     2074
    19406       21       21       21        0      234      634      632      632     2561     4113      632     2560
    19407       21       21       21        0      631      635      228      228     4110     2476      228     2475
    19408       21       21       21        0      180      634      181      181     2214     2226      181     2204
    19409       21       21       21        0      158      247      160      160     2031     2042      160     2028
    19410       21       21       21        0      162      633      163      163     2085     2094      163     2076
    19411       21       21       21        0      166      632      634      634     2132     4113      634     2133
    19412       21       21       21        0      179      181      236      236     2198     2216      236     2201
    19413       21       21       21        0      230      633      631      631     2501     4109      631     2500
    19414       21       21       21        0      164      632      165      165     2108     2120      165     2098
    19415       21       21       21        0      229      230      631      631     2477     2500      631     2490
    19416       21       21       21        0      232      632      633      633     2533     4112      633     2534
    19417       21       21       21        0      226      227      635      635     2428     2462      635     2441
    19418       21       21       21        0      234      235      634      634     2542     2576      634     2561
    19419       21       21       21        0      231      232      633      633     2504     2534      633     2511
    19420       21       21       21        0      160      635      161      161     2052     2075      161     2041
    19421       21       21       21        0      181      634      236      236     2226     2586      236     2216
    19422       21       21       21        0      226      635      248      248     2441     2653      248     2429
    19423       21       21       21        0      225      226      248      248     2422     2429      248     2425
! ... 16 like lines cut
esel,s,type,,21
keyop,21,7,0                ! Use deformed area for application of load
esel,all
esel,all
/com,*********** Define Rotational Velocity ***********
esel,none
esel,a,type,,1
cm,cm_rotvelcity69,elem
esel,all
/gst,on,on
fini
*get,_numnode,node,0,count
*get,_numelem,elem,0,count
*get, _MAXELEMNUM, elem, 0, NUM, MAX
*get, _MAXNODENUM, node, 0, NUM, MAX
*get, _MAXELEMTYPE, etyp, 0, NUM, MAX
*get, _MAXREALCONST, real, 0, NUM, MAX
/go
/wb,load,end               !  done creating loads
/com,--- Number of total nodes = %_numnode%
/com,--- Number of contact elements = 8039
/com,--- Number of spring elements = 0
/com,--- Number of bearing elements = 0
/com,--- Number of solid elements = 6860
/com,--- Number of condensed parts = 0
/com,--- Number of total elements = %_numelem%
*get,_wallbsol,active,,time,wall
/com,****************************************************************************
/com,*************************    SOLUTION       ********************************
/com,****************************************************************************
/solu
antype,0                   ! static analysis
_thickRatio=0.5     ! Ratio of thick parts in the model
eqsl,sparse,,,,,1
cntr,print,1               ! print out contact info and also make no initial contact an error
dmpoption,emat,no             ! Don't combine emat file for DANSYS
dmpoption,esav,no             ! Don't combine esav file for DANSYS
nldiag,cont,iter           ! print out contact info each equilibrium iteration
rescontrol,define,last,last,,dele	   ! Program Controlled
/com,****************************************************
/com,******************* SOLVE FOR LS 1 OF 1 ****************
esel,s,type,,20
nsle
sf,all,pres,10.495
esel,s,type,,21
nsle
sf,all,pres,10.495
nsel,all
esel,all
cmom,cm_rotvelcity69,0.,250.,0.,0.000000,0.000000,0.000000
esel,all
/nopr
/gopr
autots,on                  ! Workbench Program Controlled automatic time stepping
nsub,5,20,1                ! due to presence of high frictional contact
time,1.
outres,erase
outres,all,none
outres,nsol,all,
outres,rsol,all
outres,eangl,all
outres,etmp,all
outres,veng,all
outres,strs,all,
outres,epel,all,
outres,eppl,all,
outres,cont,all,
/nopr
esel,s,type,,18
esel,a,type,,19
cm,_elmisc,elem
esel,all
/gopr
outres,misc,all,_elmisc
! *********** WB SOLVE COMMAND ***********
! check interactive state
*get,ANSINTER_,active,,int
*if,ANSINTER_,ne,0,then
/eof
*endif
solve
/com *************** Write FE CONNECTORS ********* 
CEWRITE,file,ce,,INTE
/com,****************************************************
/com,*************** FINISHED SOLVE FOR LS 1 *************
*get,_wallasol,active,,time,wall
/nopr
*get,_numnode,node,0,count
*get,_numelem,elem,0,count
*get, _MAXELEMNUM, elem, 0, NUM, MAX
*get, _MAXNODENUM, node, 0, NUM, MAX,,,INTERNAL
*get, _MAXELEMTYPE, etyp, 0, NUM, MAX
*get, _MAXREALCONST, real, 0, NUM, MAX
/gopr
/post1
xmlo,ENCODING,ISO-8859-1
xmlo,parm
/xml,parm,xml
fini
/gopr
*get,_walldone,active,,time,wall
_preptime=(_wallbsol-_wallstrt)*3600
_solvtime=(_wallasol-_wallbsol)*3600
_posttime=(_walldone-_wallasol)*3600
_totaltim=(_walldone-_wallstrt)*3600
*get,_dlbratio,active,0,solu,dlbr
*get,_combtime,active,0,solu,comb
*get,_ssmode,active,0,solu,ssmm
*get,_ndofs,active,0,solu,ndof
/com,--- Total number of nodes = %_numnode%
/com,--- Total number of elements = %_numelem%
/com,--- Element load balance ratio = %_dlbratio%
/com,--- Time to combine distributed files = %_combtime%
/com,--- Sparse memory mode = %_ssmode%
/com,--- Number of DOF = %_ndofs%
/wb,file,end               ! done with WB generated input
